version 2
run General-0-20200922-19:16:27-12004
attr configname General
attr datetime 20200922-19:16:27
attr experiment General
attr inifile omnetpp.ini
attr iterationvars ""
attr iterationvarsf ""
attr measurement ""
attr network Mesh
attr processid 12004
attr repetition 0
attr replication #0
attr resultdir results
attr runnumber 0
attr seedset 0
param **.routerType "\"sampleproject.routers.hier.idealRouter\""
param **.coreType "\"sampleproject.cores.NI\""
param **.sourceType "\"sampleproject.cores.sources.PktFifoSrc\""
param **.sinkType "\"sampleproject.cores.sinks.InfiniteBWMultiVCSink\""
param **.portType "\"sampleproject.routers.hier.Port\""
param **.inPortType "\"sampleproject.routers.hier.inPort.InPortAsync\""
param **.OPCalcType "\"sampleproject.routers.hier.opCalc.static.XYOPCalc\""
param **.VCCalcType "\"sampleproject.routers.hier.vcCalc.free.FLUVCCalc\""
param **.schedType "\"sampleproject.routers.hier.sched.wormhole.SchedAsync\""
param **.numVCs 2
param **.flitSize 4B
param **.rows 3
param **.columns 3
param **.layers 3
param **.statStartTime 1us
param **.source.pktVC 0
param **.source.msgLen 4
param **.source.pktLen 8
param **.source.isSynchronous false
param **.source.isTrace false
param **.source.fileName "\"\""
param **.source.flitArrivalDelay 2ns
param **.source.maxQueuedPkts 16
param **.source.dstId "(id + intuniform(1, 26)) % 27"
param **.inPort.collectPerHopWait false
param **.inPort.flitsPerVC 1
param **.sched.arbitration_type 0

statistic Mesh.router[0].port[0].sched number-used-VCs
field count 0
field mean nan
field stddev nan
field min nan
field max nan
field sum 0
field sqrsum 0
statistic Mesh.router[0].port[0].sched link-utilization
field count 1
field mean -1
field stddev nan
field min -1
field max -1
field sum -1
field sqrsum 1
statistic Mesh.router[0].port[1].sched number-used-VCs
field count 0
field mean nan
field stddev nan
field min nan
field max nan
field sum 0
field sqrsum 0
statistic Mesh.router[0].port[1].sched link-utilization
field count 1
field mean -1
field stddev nan
field min -1
field max -1
field sum -1
field sqrsum 1
statistic Mesh.router[0].port[2].sched number-used-VCs
field count 128
field mean 1
field stddev 0
field min 1
field max 1
field sum 128
field sqrsum 128
statistic Mesh.router[0].port[2].sched link-utilization
field count 1
field mean 21.645997745209
field stddev nan
field min 21.645997745209
field max 21.645997745209
field sum 21.645997745209
field sqrsum 468.54921838557
statistic Mesh.router[0].port[3].sched number-used-VCs
field count 228
field mean 1.359649122807
field stddev 0.48095340304681
field min 1
field max 2
field sum 310
field sqrsum 474
statistic Mesh.router[0].port[3].sched link-utilization
field count 1
field mean 13.754227733935
field stddev nan
field min 13.754227733935
field max 13.754227733935
field sum 13.754227733935
field sqrsum 189.17878055694
statistic Mesh.router[0].port[4].sched number-used-VCs
field count 271
field mean 1.0922509225092
field stddev 0.28991522986626
field min 1
field max 2
field sum 296
field sqrsum 346
statistic Mesh.router[0].port[4].sched link-utilization
field count 1
field mean 25.704622322435
field stddev nan
field min 25.704622322435
field max 25.704622322435
field sum 25.704622322435
field sqrsum 660.72760873904
statistic Mesh.router[0].port[5].sched number-used-VCs
field count 0
field mean nan
field stddev nan
field min nan
field max nan
field sum 0
field sqrsum 0
statistic Mesh.router[0].port[5].sched link-utilization
field count 1
field mean -1
field stddev nan
field min -1
field max -1
field sum -1
field sqrsum 1
statistic Mesh.router[0].port[6].sched number-used-VCs
field count 254
field mean 1.0905511811024
field stddev 0.28753637222851
field min 1
field max 2
field sum 277
field sqrsum 323
statistic Mesh.router[0].port[6].sched link-utilization
field count 1
field mean 34.723788049605
field stddev nan
field min 34.723788049605
field max 34.723788049605
field sum 34.723788049605
field sqrsum 1205.7414565139
statistic Mesh.router[1].port[0].sched number-used-VCs
field count 0
field mean nan
field stddev nan
field min nan
field max nan
field sum 0
field sqrsum 0
statistic Mesh.router[1].port[0].sched link-utilization
field count 1
field mean -1
field stddev nan
field min -1
field max -1
field sum -1
field sqrsum 1
statistic Mesh.router[1].port[1].sched number-used-VCs
field count 249
field mean 1.1927710843373
field stddev 0.3952693444278
field min 1
field max 2
field sum 297
field sqrsum 393
statistic Mesh.router[1].port[1].sched link-utilization
field count 1
field mean 41.488162344983
field stddev nan
field min 41.488162344983
field max 41.488162344983
field sum 41.488162344983
field sqrsum 1721.2676147637
statistic Mesh.router[1].port[2].sched number-used-VCs
field count 413
field mean 1.2953995157385
field stddev 0.45677547298231
field min 1
field max 2
field sum 535
field sqrsum 779
statistic Mesh.router[1].port[2].sched link-utilization
field count 1
field mean 42.3900789177
field stddev nan
field min 42.3900789177
field max 42.3900789177
field sum 42.3900789177
field sqrsum 1796.9187906488
statistic Mesh.router[1].port[3].sched number-used-VCs
field count 296
field mean 1.4425675675676
field stddev 0.49753169952207
field min 1
field max 2
field sum 427
field sqrsum 689
statistic Mesh.router[1].port[3].sched link-utilization
field count 1
field mean 28.861330326945
field stddev nan
field min 28.861330326945
field max 28.861330326945
field sum 28.861330326945
field sqrsum 832.97638824102
statistic Mesh.router[1].port[4].sched number-used-VCs
field count 300
field mean 1.1466666666667
field stddev 0.35436441131823
field min 1
field max 2
field sum 344
field sqrsum 432
statistic Mesh.router[1].port[4].sched link-utilization
field count 1
field mean 32.243517474634
field stddev nan
field min 32.243517474634
field max 32.243517474634
field sum 32.243517474634
field sqrsum 1039.644419137
statistic Mesh.router[1].port[5].sched number-used-VCs
field count 0
field mean nan
field stddev nan
field min nan
field max nan
field sum 0
field sqrsum 0
statistic Mesh.router[1].port[5].sched link-utilization
field count 1
field mean -1
field stddev nan
field min -1
field max -1
field sum -1
field sqrsum 1
statistic Mesh.router[1].port[6].sched number-used-VCs
field count 169
field mean 1.094674556213
field stddev 0.2936349278217
field min 1
field max 2
field sum 185
field sqrsum 217
statistic Mesh.router[1].port[6].sched link-utilization
field count 1
field mean 11.273957158963
field stddev nan
field min 11.273957158963
field max 11.273957158963
field sum 11.273957158963
field sqrsum 127.10211002213
statistic Mesh.router[2].port[0].sched number-used-VCs
field count 0
field mean nan
field stddev nan
field min nan
field max nan
field sum 0
field sqrsum 0
statistic Mesh.router[2].port[0].sched link-utilization
field count 1
field mean -1
field stddev nan
field min -1
field max -1
field sum -1
field sqrsum 1
statistic Mesh.router[2].port[1].sched number-used-VCs
field count 217
field mean 1.1566820276498
field stddev 0.36434118027986
field min 1
field max 2
field sum 251
field sqrsum 319
statistic Mesh.router[2].port[1].sched link-utilization
field count 1
field mean 34.272829763247
field stddev nan
field min 34.272829763247
field max 34.272829763247
field sum 34.272829763247
field sqrsum 1174.6268599805
statistic Mesh.router[2].port[2].sched number-used-VCs
field count 422
field mean 1.6374407582938
field stddev 0.48130966426942
field min 1
field max 2
field sum 691
field sqrsum 1229
statistic Mesh.router[2].port[2].sched link-utilization
field count 1
field mean 40.811724915445
field stddev nan
field min 40.811724915445
field max 40.811724915445
field sum 40.811724915445
field sqrsum 1665.596890574
statistic Mesh.router[2].port[3].sched number-used-VCs
field count 0
field mean nan
field stddev nan
field min nan
field max nan
field sum 0
field sqrsum 0
statistic Mesh.router[2].port[3].sched link-utilization
field count 1
field mean -1
field stddev nan
field min -1
field max -1
field sum -1
field sqrsum 1
statistic Mesh.router[2].port[4].sched number-used-VCs
field count 451
field mean 1.1086474501109
field stddev 0.31154195346005
field min 1
field max 2
field sum 500
field sqrsum 598
statistic Mesh.router[2].port[4].sched link-utilization
field count 1
field mean 45.095828635851
field stddev nan
field min 45.095828635851
field max 45.095828635851
field sum 45.095828635851
field sqrsum 2033.6337603541
statistic Mesh.router[2].port[5].sched number-used-VCs
field count 0
field mean nan
field stddev nan
field min nan
field max nan
field sum 0
field sqrsum 0
statistic Mesh.router[2].port[5].sched link-utilization
field count 1
field mean -1
field stddev nan
field min -1
field max -1
field sum -1
field sqrsum 1
statistic Mesh.router[2].port[6].sched number-used-VCs
field count 226
field mean 1.0796460176991
field stddev 0.27134538614849
field min 1
field max 2
field sum 244
field sqrsum 280
statistic Mesh.router[2].port[6].sched link-utilization
field count 1
field mean 31.116121758737
field stddev nan
field min 31.116121758737
field max 31.116121758737
field sum 31.116121758737
field sqrsum 968.21303330457
statistic Mesh.router[3].port[0].sched number-used-VCs
field count 169
field mean 1
field stddev 0
field min 1
field max 1
field sum 169
field sqrsum 169
statistic Mesh.router[3].port[0].sched link-utilization
field count 1
field mean 18.489289740699
field stddev nan
field min 18.489289740699
field max 18.489289740699
field sum 18.489289740699
field sqrsum 341.85383511551
statistic Mesh.router[3].port[1].sched number-used-VCs
field count 0
field mean nan
field stddev nan
field min nan
field max nan
field sum 0
field sqrsum 0
statistic Mesh.router[3].port[1].sched link-utilization
field count 1
field mean -1
field stddev nan
field min -1
field max -1
field sum -1
field sqrsum 1
statistic Mesh.router[3].port[2].sched number-used-VCs
field count 496
field mean 1.4173387096774
field stddev 0.49361762303554
field min 1
field max 2
field sum 703
field sqrsum 1117
statistic Mesh.router[3].port[2].sched link-utilization
field count 1
field mean 62.683201803833
field stddev nan
field min 62.683201803833
field max 62.683201803833
field sum 62.683201803833
field sqrsum 3929.1837883801
statistic Mesh.router[3].port[3].sched number-used-VCs
field count 376
field mean 1.4015957446809
field stddev 0.49087416596161
field min 1
field max 2
field sum 527
field sqrsum 829
statistic Mesh.router[3].port[3].sched link-utilization
field count 1
field mean 31.567080045096
field stddev nan
field min 31.567080045096
field max 31.567080045096
field sum 31.567080045096
field sqrsum 996.48054257349
statistic Mesh.router[3].port[4].sched number-used-VCs
field count 559
field mean 1.1359570661896
field stddev 0.3430499482154
field min 1
field max 2
field sum 635
field sqrsum 787
statistic Mesh.router[3].port[4].sched link-utilization
field count 1
field mean 45.095828635851
field stddev nan
field min 45.095828635851
field max 45.095828635851
field sum 45.095828635851
field sqrsum 2033.6337603541
statistic Mesh.router[3].port[5].sched number-used-VCs
field count 0
field mean nan
field stddev nan
field min nan
field max nan
field sum 0
field sqrsum 0
statistic Mesh.router[3].port[5].sched link-utilization
field count 1
field mean -1
field stddev nan
field min -1
field max -1
field sum -1
field sqrsum 1
statistic Mesh.router[3].port[6].sched number-used-VCs
field count 394
field mean 1.3375634517766
field stddev 0.47348005354352
field min 1
field max 2
field sum 527
field sqrsum 793
statistic Mesh.router[3].port[6].sched link-utilization
field count 1
field mean 14.205186020293
field stddev nan
field min 14.205186020293
field max 14.205186020293
field sum 14.205186020293
field sqrsum 201.78730987113
statistic Mesh.router[4].port[0].sched number-used-VCs
field count 293
field mean 1.2389078498294
field stddev 0.42714587396304
field min 1
field max 2
field sum 363
field sqrsum 503
statistic Mesh.router[4].port[0].sched link-utilization
field count 1
field mean 28.861330326945
field stddev nan
field min 28.861330326945
field max 28.861330326945
field sum 28.861330326945
field sqrsum 832.97638824102
statistic Mesh.router[4].port[1].sched number-used-VCs
field count 513
field mean 1.5555555555556
field stddev 0.49738901609639
field min 1
field max 2
field sum 798
field sqrsum 1368
statistic Mesh.router[4].port[1].sched link-utilization
field count 1
field mean 47.350620067644
field stddev nan
field min 47.350620067644
field max 47.350620067644
field sum 47.350620067644
field sqrsum 2242.0812207903
statistic Mesh.router[4].port[2].sched number-used-VCs
field count 330
field mean 1.1151515151515
field stddev 0.3196894504899
field min 1
field max 2
field sum 368
field sqrsum 444
statistic Mesh.router[4].port[2].sched link-utilization
field count 1
field mean 28.861330326945
field stddev nan
field min 28.861330326945
field max 28.861330326945
field sum 28.861330326945
field sqrsum 832.97638824102
statistic Mesh.router[4].port[3].sched number-used-VCs
field count 527
field mean 1.6603415559772
field stddev 0.47404323999387
field min 1
field max 2
field sum 875
field sqrsum 1571
statistic Mesh.router[4].port[3].sched link-utilization
field count 1
field mean 68.094701240135
field stddev nan
field min 68.094701240135
field max 68.094701240135
field sum 68.094701240135
field sqrsum 4636.8883369833
statistic Mesh.router[4].port[4].sched number-used-VCs
field count 470
field mean 1.1765957446809
field stddev 0.38173253675758
field min 1
field max 2
field sum 553
field sqrsum 719
statistic Mesh.router[4].port[4].sched link-utilization
field count 1
field mean 36.076662908681
field stddev nan
field min 36.076662908681
field max 36.076662908681
field sum 36.076662908681
field sqrsum 1301.5256066266
statistic Mesh.router[4].port[5].sched number-used-VCs
field count 0
field mean nan
field stddev nan
field min nan
field max nan
field sum 0
field sqrsum 0
statistic Mesh.router[4].port[5].sched link-utilization
field count 1
field mean -1
field stddev nan
field min -1
field max -1
field sum -1
field sqrsum 1
statistic Mesh.router[4].port[6].sched number-used-VCs
field count 96
field mean 1
field stddev 0
field min 1
field max 1
field sum 96
field sqrsum 96
statistic Mesh.router[4].port[6].sched link-utilization
field count 1
field mean 7.2153325817361
field stddev nan
field min 7.2153325817361
field max 7.2153325817361
field sum 7.2153325817361
field sqrsum 52.061024265063
statistic Mesh.router[5].port[0].sched number-used-VCs
field count 557
field mean 1.4021543985637
field stddev 0.49077353185705
field min 1
field max 2
field sum 781
field sqrsum 1229
statistic Mesh.router[5].port[0].sched link-utilization
field count 1
field mean 86.809470124014
field stddev nan
field min 86.809470124014
field max 86.809470124014
field sum 86.809470124014
field sqrsum 7535.884103212
statistic Mesh.router[5].port[1].sched number-used-VCs
field count 329
field mean 1.2705167173252
field stddev 0.44490342936134
field min 1
field max 2
field sum 418
field sqrsum 596
statistic Mesh.router[5].port[1].sched link-utilization
field count 1
field mean 12.401352874859
field stddev nan
field min 12.401352874859
field max 12.401352874859
field sum 12.401352874859
field sqrsum 153.79355312678
statistic Mesh.router[5].port[2].sched number-used-VCs
field count 162
field mean 1.358024691358
field stddev 0.48090602832799
field min 1
field max 2
field sum 220
field sqrsum 336
statistic Mesh.router[5].port[2].sched link-utilization
field count 1
field mean 21.420518602029
field stddev nan
field min 21.420518602029
field max 21.420518602029
field sum 21.420518602029
field sqrsum 458.83861717988
statistic Mesh.router[5].port[3].sched number-used-VCs
field count 0
field mean nan
field stddev nan
field min nan
field max nan
field sum 0
field sqrsum 0
statistic Mesh.router[5].port[3].sched link-utilization
field count 1
field mean -1
field stddev nan
field min -1
field max -1
field sum -1
field sqrsum 1
statistic Mesh.router[5].port[4].sched number-used-VCs
field count 499
field mean 1.2024048096192
field stddev 0.40219556629968
field min 1
field max 2
field sum 600
field sqrsum 802
statistic Mesh.router[5].port[4].sched link-utilization
field count 1
field mean 47.801578354002
field stddev nan
field min 47.801578354002
field max 47.801578354002
field sum 47.801578354002
field sqrsum 2284.9908931338
statistic Mesh.router[5].port[5].sched number-used-VCs
field count 0
field mean nan
field stddev nan
field min nan
field max nan
field sum 0
field sqrsum 0
statistic Mesh.router[5].port[5].sched link-utilization
field count 1
field mean -1
field stddev nan
field min -1
field max -1
field sum -1
field sqrsum 1
statistic Mesh.router[5].port[6].sched number-used-VCs
field count 295
field mean 1.3932203389831
field stddev 0.48929506657022
field min 1
field max 2
field sum 411
field sqrsum 643
statistic Mesh.router[5].port[6].sched link-utilization
field count 1
field mean 14.430665163472
field stddev nan
field min 14.430665163472
field max 14.430665163472
field sum 14.430665163472
field sqrsum 208.24409706025
statistic Mesh.router[6].port[0].sched number-used-VCs
field count 521
field mean 1.5585412667946
field stddev 0.49703832726918
field min 1
field max 2
field sum 812
field sqrsum 1394
statistic Mesh.router[6].port[0].sched link-utilization
field count 1
field mean 38.782412626832
field stddev nan
field min 38.782412626832
field max 38.782412626832
field sum 38.782412626832
field sqrsum 1504.0755291579
statistic Mesh.router[6].port[1].sched number-used-VCs
field count 0
field mean nan
field stddev nan
field min nan
field max nan
field sum 0
field sqrsum 0
statistic Mesh.router[6].port[1].sched link-utilization
field count 1
field mean -1
field stddev nan
field min -1
field max -1
field sum -1
field sqrsum 1
statistic Mesh.router[6].port[2].sched number-used-VCs
field count 0
field mean nan
field stddev nan
field min nan
field max nan
field sum 0
field sqrsum 0
statistic Mesh.router[6].port[2].sched link-utilization
field count 1
field mean -1
field stddev nan
field min -1
field max -1
field sum -1
field sqrsum 1
statistic Mesh.router[6].port[3].sched number-used-VCs
field count 389
field mean 1.3367609254499
field stddev 0.47321100643748
field min 1
field max 2
field sum 520
field sqrsum 782
statistic Mesh.router[6].port[3].sched link-utilization
field count 1
field mean 59.751972942503
field stddev nan
field min 59.751972942503
field max 59.751972942503
field sum 59.751972942503
field sqrsum 3570.2982705216
statistic Mesh.router[6].port[4].sched number-used-VCs
field count 378
field mean 1.1216931216931
field stddev 0.32736434978819
field min 1
field max 2
field sum 424
field sqrsum 516
statistic Mesh.router[6].port[4].sched link-utilization
field count 1
field mean 45.32130777903
field stddev nan
field min 45.32130777903
field max 45.32130777903
field sum 45.32130777903
field sqrsum 2054.0209388016
statistic Mesh.router[6].port[5].sched number-used-VCs
field count 0
field mean nan
field stddev nan
field min nan
field max nan
field sum 0
field sqrsum 0
statistic Mesh.router[6].port[5].sched link-utilization
field count 1
field mean -1
field stddev nan
field min -1
field max -1
field sum -1
field sqrsum 1
statistic Mesh.router[6].port[6].sched number-used-VCs
field count 194
field mean 1.0412371134021
field stddev 0.19935261925038
field min 1
field max 2
field sum 202
field sqrsum 218
statistic Mesh.router[6].port[6].sched link-utilization
field count 1
field mean 19.842164599774
field stddev nan
field min 19.842164599774
field max 19.842164599774
field sum 19.842164599774
field sqrsum 393.71149600454
statistic Mesh.router[7].port[0].sched number-used-VCs
field count 296
field mean 1.6587837837838
field stddev 0.47492073259084
field min 1
field max 2
field sum 491
field sqrsum 881
statistic Mesh.router[7].port[0].sched link-utilization
field count 1
field mean 43.517474633596
field stddev nan
field min 43.517474633596
field max 43.517474633596
field sum 43.517474633596
field sqrsum 1893.7705984857
statistic Mesh.router[7].port[1].sched number-used-VCs
field count 400
field mean 1.4075
field stddev 0.49198462595944
field min 1
field max 2
field sum 563
field sqrsum 889
statistic Mesh.router[7].port[1].sched link-utilization
field count 1
field mean 30.890642615558
field stddev nan
field min 30.890642615558
field max 30.890642615558
field sum 30.890642615558
field sqrsum 954.23180120213
statistic Mesh.router[7].port[2].sched number-used-VCs
field count 0
field mean nan
field stddev nan
field min nan
field max nan
field sum 0
field sqrsum 0
statistic Mesh.router[7].port[2].sched link-utilization
field count 1
field mean -1
field stddev nan
field min -1
field max -1
field sum -1
field sqrsum 1
statistic Mesh.router[7].port[3].sched number-used-VCs
field count 172
field mean 1.4883720930233
field stddev 0.50132423579165
field min 1
field max 2
field sum 256
field sqrsum 424
statistic Mesh.router[7].port[3].sched link-utilization
field count 1
field mean 22.547914317926
field stddev nan
field min 22.547914317926
field max 22.547914317926
field sum 22.547914317926
field sqrsum 508.40844008852
statistic Mesh.router[7].port[4].sched number-used-VCs
field count 650
field mean 1.1676923076923
field stddev 0.3738805344277
field min 1
field max 2
field sum 759
field sqrsum 977
statistic Mesh.router[7].port[4].sched link-utilization
field count 1
field mean 67.869222096956
field stddev nan
field min 67.869222096956
field max 67.869222096956
field sum 67.869222096956
field sqrsum 4606.2313080459
statistic Mesh.router[7].port[5].sched number-used-VCs
field count 0
field mean nan
field stddev nan
field min nan
field max nan
field sum 0
field sqrsum 0
statistic Mesh.router[7].port[5].sched link-utilization
field count 1
field mean -1
field stddev nan
field min -1
field max -1
field sum -1
field sqrsum 1
statistic Mesh.router[7].port[6].sched number-used-VCs
field count 355
field mean 1
field stddev 0
field min 1
field max 1
field sum 355
field sqrsum 355
statistic Mesh.router[7].port[6].sched link-utilization
field count 1
field mean 43.291995490417
field stddev nan
field min 43.291995490417
field max 43.291995490417
field sum 43.291995490417
field sqrsum 1874.1968735423
statistic Mesh.router[8].port[0].sched number-used-VCs
field count 128
field mean 1
field stddev 0
field min 1
field max 1
field sum 128
field sqrsum 128
statistic Mesh.router[8].port[0].sched link-utilization
field count 1
field mean 18.714768883878
field stddev nan
field min 18.714768883878
field max 18.714768883878
field sum 18.714768883878
field sqrsum 350.24257437698
statistic Mesh.router[8].port[1].sched number-used-VCs
field count 468
field mean 1.3376068376068
field stddev 0.47339974926947
field min 1
field max 2
field sum 626
field sqrsum 942
statistic Mesh.router[8].port[1].sched link-utilization
field count 1
field mean 40.360766629087
field stddev nan
field min 40.360766629087
field max 40.360766629087
field sum 40.360766629087
field sqrsum 1628.9914828876
statistic Mesh.router[8].port[2].sched number-used-VCs
field count 0
field mean nan
field stddev nan
field min nan
field max nan
field sum 0
field sqrsum 0
statistic Mesh.router[8].port[2].sched link-utilization
field count 1
field mean -1
field stddev nan
field min -1
field max -1
field sum -1
field sqrsum 1
statistic Mesh.router[8].port[3].sched number-used-VCs
field count 0
field mean nan
field stddev nan
field min nan
field max nan
field sum 0
field sqrsum 0
statistic Mesh.router[8].port[3].sched link-utilization
field count 1
field mean -1
field stddev nan
field min -1
field max -1
field sum -1
field sqrsum 1
statistic Mesh.router[8].port[4].sched number-used-VCs
field count 167
field mean 1.1437125748503
field stddev 0.3518530823908
field min 1
field max 2
field sum 191
field sqrsum 239
statistic Mesh.router[8].port[4].sched link-utilization
field count 1
field mean 14.430665163472
field stddev nan
field min 14.430665163472
field max 14.430665163472
field sum 14.430665163472
field sqrsum 208.24409706025
statistic Mesh.router[8].port[5].sched number-used-VCs
field count 0
field mean nan
field stddev nan
field min nan
field max nan
field sum 0
field sqrsum 0
statistic Mesh.router[8].port[5].sched link-utilization
field count 1
field mean -1
field stddev nan
field min -1
field max -1
field sum -1
field sqrsum 1
statistic Mesh.router[8].port[6].sched number-used-VCs
field count 202
field mean 1.8267326732673
field stddev 0.37941853630696
field min 1
field max 2
field sum 369
field sqrsum 703
statistic Mesh.router[8].port[6].sched link-utilization
field count 1
field mean 29.988726042841
field stddev nan
field min 29.988726042841
field max 29.988726042841
field sum 29.988726042841
field sqrsum 899.32368967258
statistic Mesh.router[9].port[0].sched number-used-VCs
field count 0
field mean nan
field stddev nan
field min nan
field max nan
field sum 0
field sqrsum 0
statistic Mesh.router[9].port[0].sched link-utilization
field count 1
field mean -1
field stddev nan
field min -1
field max -1
field sum -1
field sqrsum 1
statistic Mesh.router[9].port[1].sched number-used-VCs
field count 0
field mean nan
field stddev nan
field min nan
field max nan
field sum 0
field sqrsum 0
statistic Mesh.router[9].port[1].sched link-utilization
field count 1
field mean -1
field stddev nan
field min -1
field max -1
field sum -1
field sqrsum 1
statistic Mesh.router[9].port[2].sched number-used-VCs
field count 32
field mean 1
field stddev 0
field min 1
field max 1
field sum 32
field sqrsum 32
statistic Mesh.router[9].port[2].sched link-utilization
field count 1
field mean 0
field stddev nan
field min 0
field max 0
field sum 0
field sqrsum 0
statistic Mesh.router[9].port[3].sched number-used-VCs
field count 160
field mean 1
field stddev 0
field min 1
field max 1
field sum 160
field sqrsum 160
statistic Mesh.router[9].port[3].sched link-utilization
field count 1
field mean 13.754227733935
field stddev nan
field min 13.754227733935
field max 13.754227733935
field sum 13.754227733935
field sqrsum 189.17878055694
statistic Mesh.router[9].port[4].sched number-used-VCs
field count 355
field mean 1.0225352112676
field stddev 0.14862570351512
field min 1
field max 2
field sum 363
field sqrsum 379
statistic Mesh.router[9].port[4].sched link-utilization
field count 1
field mean 43.291995490417
field stddev nan
field min 43.291995490417
field max 43.291995490417
field sum 43.291995490417
field sqrsum 1874.1968735423
statistic Mesh.router[9].port[5].sched number-used-VCs
field count 135
field mean 1.5407407407407
field stddev 0.50019343964025
field min 1
field max 2
field sum 208
field sqrsum 354
statistic Mesh.router[9].port[5].sched link-utilization
field count 1
field mean 7.2153325817362
field stddev nan
field min 7.2153325817362
field max 7.2153325817362
field sum 7.2153325817362
field sqrsum 52.061024265064
statistic Mesh.router[9].port[6].sched number-used-VCs
field count 244
field mean 1.1311475409836
field stddev 0.33825550213772
field min 1
field max 2
field sum 276
field sqrsum 340
statistic Mesh.router[9].port[6].sched link-utilization
field count 1
field mean 32.919954904171
field stddev nan
field min 32.919954904171
field max 32.919954904171
field sum 32.919954904171
field sqrsum 1083.7234308927
statistic Mesh.router[10].port[0].sched number-used-VCs
field count 0
field mean nan
field stddev nan
field min nan
field max nan
field sum 0
field sqrsum 0
statistic Mesh.router[10].port[0].sched link-utilization
field count 1
field mean -1
field stddev nan
field min -1
field max -1
field sum -1
field sqrsum 1
statistic Mesh.router[10].port[1].sched number-used-VCs
field count 32
field mean 1
field stddev 0
field min 1
field max 1
field sum 32
field sqrsum 32
statistic Mesh.router[10].port[1].sched link-utilization
field count 1
field mean 0
field stddev nan
field min 0
field max 0
field sum 0
field sqrsum 0
statistic Mesh.router[10].port[2].sched number-used-VCs
field count 128
field mean 1
field stddev 0
field min 1
field max 1
field sum 128
field sqrsum 128
statistic Mesh.router[10].port[2].sched link-utilization
field count 1
field mean 13.979706877114
field stddev nan
field min 13.979706877114
field max 13.979706877114
field sum 13.979706877114
field sqrsum 195.43220437002
statistic Mesh.router[10].port[3].sched number-used-VCs
field count 64
field mean 1
field stddev 0
field min 1
field max 1
field sum 64
field sqrsum 64
statistic Mesh.router[10].port[3].sched link-utilization
field count 1
field mean 0
field stddev nan
field min 0
field max 0
field sum 0
field sqrsum 0
statistic Mesh.router[10].port[4].sched number-used-VCs
field count 463
field mean 1.1209503239741
field stddev 0.32642223558135
field min 1
field max 2
field sum 519
field sqrsum 631
statistic Mesh.router[10].port[4].sched link-utilization
field count 1
field mean 30.21420518602
field stddev nan
field min 30.21420518602
field max 30.21420518602
field sum 30.21420518602
field sqrsum 912.89819502294
statistic Mesh.router[10].port[5].sched number-used-VCs
field count 296
field mean 1.1858108108108
field stddev 0.38961260814443
field min 1
field max 2
field sum 351
field sqrsum 461
statistic Mesh.router[10].port[5].sched link-utilization
field count 1
field mean 34.498308906426
field stddev nan
field min 34.498308906426
field max 34.498308906426
field sum 34.498308906426
field sqrsum 1190.1333174032
statistic Mesh.router[10].port[6].sched number-used-VCs
field count 238
field mean 1.1008403361345
field stddev 0.30175179067614
field min 1
field max 2
field sum 262
field sqrsum 310
statistic Mesh.router[10].port[6].sched link-utilization
field count 1
field mean 21.420518602029
field stddev nan
field min 21.420518602029
field max 21.420518602029
field sum 21.420518602029
field sqrsum 458.83861717989
statistic Mesh.router[11].port[0].sched number-used-VCs
field count 0
field mean nan
field stddev nan
field min nan
field max nan
field sum 0
field sqrsum 0
statistic Mesh.router[11].port[0].sched link-utilization
field count 1
field mean -1
field stddev nan
field min -1
field max -1
field sum -1
field sqrsum 1
statistic Mesh.router[11].port[1].sched number-used-VCs
field count 131
field mean 1.0610687022901
field stddev 0.24037551362687
field min 1
field max 2
field sum 139
field sqrsum 155
statistic Mesh.router[11].port[1].sched link-utilization
field count 1
field mean 7.891770011274
field stddev nan
field min 7.891770011274
field max 7.891770011274
field sum 7.891770011274
field sqrsum 62.280033910844
statistic Mesh.router[11].port[2].sched number-used-VCs
field count 179
field mean 1
field stddev 0
field min 1
field max 1
field sum 179
field sqrsum 179
statistic Mesh.router[11].port[2].sched link-utilization
field count 1
field mean 11.499436302142
field stddev nan
field min 11.499436302142
field max 11.499436302142
field sum 11.499436302142
field sqrsum 132.23703526702
statistic Mesh.router[11].port[3].sched number-used-VCs
field count 0
field mean nan
field stddev nan
field min nan
field max nan
field sum 0
field sqrsum 0
statistic Mesh.router[11].port[3].sched link-utilization
field count 1
field mean -1
field stddev nan
field min -1
field max -1
field sum -1
field sqrsum 1
statistic Mesh.router[11].port[4].sched number-used-VCs
field count 229
field mean 1
field stddev 0
field min 1
field max 1
field sum 229
field sqrsum 229
statistic Mesh.router[11].port[4].sched link-utilization
field count 1
field mean 28.635851183766
field stddev nan
field min 28.635851183766
field max 28.635851183766
field sum 28.635851183766
field sqrsum 820.01197301876
statistic Mesh.router[11].port[5].sched number-used-VCs
field count 228
field mean 1.140350877193
field stddev 0.34811494841791
field min 1
field max 2
field sum 260
field sqrsum 324
statistic Mesh.router[11].port[5].sched link-utilization
field count 1
field mean 14.430665163472
field stddev nan
field min 14.430665163472
field max 14.430665163472
field sum 14.430665163472
field sqrsum 208.24409706025
statistic Mesh.router[11].port[6].sched number-used-VCs
field count 335
field mean 1.244776119403
field stddev 0.43059754543494
field min 1
field max 2
field sum 417
field sqrsum 581
statistic Mesh.router[11].port[6].sched link-utilization
field count 1
field mean 49.154453213078
field stddev nan
field min 49.154453213078
field max 49.154453213078
field sum 49.154453213078
field sqrsum 2416.1602706767
statistic Mesh.router[12].port[0].sched number-used-VCs
field count 32
field mean 1
field stddev 0
field min 1
field max 1
field sum 32
field sqrsum 32
statistic Mesh.router[12].port[0].sched link-utilization
field count 1
field mean 0
field stddev nan
field min 0
field max 0
field sum 0
field sqrsum 0
statistic Mesh.router[12].port[1].sched number-used-VCs
field count 0
field mean nan
field stddev nan
field min nan
field max nan
field sum 0
field sqrsum 0
statistic Mesh.router[12].port[1].sched link-utilization
field count 1
field mean -1
field stddev nan
field min -1
field max -1
field sum -1
field sqrsum 1
statistic Mesh.router[12].port[2].sched number-used-VCs
field count 128
field mean 1
field stddev 0
field min 1
field max 1
field sum 128
field sqrsum 128
statistic Mesh.router[12].port[2].sched link-utilization
field count 1
field mean 0
field stddev nan
field min 0
field max 0
field sum 0
field sqrsum 0
statistic Mesh.router[12].port[3].sched number-used-VCs
field count 128
field mean 1
field stddev 0
field min 1
field max 1
field sum 128
field sqrsum 128
statistic Mesh.router[12].port[3].sched link-utilization
field count 1
field mean 21.645997745209
field stddev nan
field min 21.645997745209
field max 21.645997745209
field sum 21.645997745209
field sqrsum 468.54921838557
statistic Mesh.router[12].port[4].sched number-used-VCs
field count 357
field mean 1
field stddev 0
field min 1
field max 1
field sum 357
field sqrsum 357
statistic Mesh.router[12].port[4].sched link-utilization
field count 1
field mean 18.03833145434
field stddev nan
field min 18.03833145434
field max 18.03833145434
field sum 18.03833145434
field sqrsum 325.38140165665
statistic Mesh.router[12].port[5].sched number-used-VCs
field count 406
field mean 1.115763546798
field stddev 0.32033590895983
field min 1
field max 2
field sum 453
field sqrsum 547
statistic Mesh.router[12].port[5].sched link-utilization
field count 1
field mean 34.498308906426
field stddev nan
field min 34.498308906426
field max 34.498308906426
field sum 34.498308906426
field sqrsum 1190.1333174032
statistic Mesh.router[12].port[6].sched number-used-VCs
field count 238
field mean 1.1344537815126
field stddev 0.34185815766856
field min 1
field max 2
field sum 270
field sqrsum 334
statistic Mesh.router[12].port[6].sched link-utilization
field count 1
field mean 11.048478015784
field stddev nan
field min 11.048478015784
field max 11.048478015784
field sum 11.048478015784
field sqrsum 122.06886646525
statistic Mesh.router[13].port[0].sched number-used-VCs
field count 99
field mean 1.020202020202
field stddev 0.14140677897023
field min 1
field max 2
field sum 101
field sqrsum 105
statistic Mesh.router[13].port[0].sched link-utilization
field count 1
field mean 6.9898534385569
field stddev nan
field min 6.9898534385569
field max 6.9898534385569
field sum 6.9898534385569
field sqrsum 48.858051092506
statistic Mesh.router[13].port[1].sched number-used-VCs
field count 64
field mean 1
field stddev 0
field min 1
field max 1
field sum 64
field sqrsum 64
statistic Mesh.router[13].port[1].sched link-utilization
field count 1
field mean 0
field stddev nan
field min 0
field max 0
field sum 0
field sqrsum 0
statistic Mesh.router[13].port[2].sched number-used-VCs
field count 209
field mean 1
field stddev 0
field min 1
field max 1
field sum 209
field sqrsum 209
statistic Mesh.router[13].port[2].sched link-utilization
field count 1
field mean 25.253664036077
field stddev nan
field min 25.253664036077
field max 25.253664036077
field sum 25.253664036077
field sqrsum 637.74754724703
statistic Mesh.router[13].port[3].sched number-used-VCs
field count 128
field mean 1.0625
field stddev 0.24301258837813
field min 1
field max 2
field sum 136
field sqrsum 152
statistic Mesh.router[13].port[3].sched link-utilization
field count 1
field mean 27.057497181511
field stddev nan
field min 27.057497181511
field max 27.057497181511
field sum 27.057497181511
field sqrsum 732.10815372746
statistic Mesh.router[13].port[4].sched number-used-VCs
field count 292
field mean 1.0547945205479
field stddev 0.22796942936694
field min 1
field max 2
field sum 308
field sqrsum 340
statistic Mesh.router[13].port[4].sched link-utilization
field count 1
field mean 31.341600901917
field stddev nan
field min 31.341600901917
field max 31.341600901917
field sum 31.341600901917
field sqrsum 982.29594709502
statistic Mesh.router[13].port[5].sched number-used-VCs
field count 400
field mean 1.2275
field stddev 0.4197430291575
field min 1
field max 2
field sum 491
field sqrsum 673
statistic Mesh.router[13].port[5].sched link-utilization
field count 1
field mean 39.233370913191
field stddev nan
field min 39.233370913191
field max 39.233370913191
field sum 39.233370913191
field sqrsum 1539.257393212
statistic Mesh.router[13].port[6].sched number-used-VCs
field count 187
field mean 1.1283422459893
field stddev 0.33536840676999
field min 1
field max 2
field sum 211
field sqrsum 259
statistic Mesh.router[13].port[6].sched link-utilization
field count 1
field mean 27.733934611048
field stddev nan
field min 27.733934611048
field max 27.733934611048
field sum 27.733934611048
field sqrsum 769.17112900991
statistic Mesh.router[14].port[0].sched number-used-VCs
field count 113
field mean 1.283185840708
field stddev 0.45255280963884
field min 1
field max 2
field sum 145
field sqrsum 209
statistic Mesh.router[14].port[0].sched link-utilization
field count 1
field mean 23.900789177001
field stddev nan
field min 23.900789177001
field max 23.900789177001
field sum 23.900789177001
field sqrsum 571.24772328345
statistic Mesh.router[14].port[1].sched number-used-VCs
field count 82
field mean 1
field stddev 0
field min 1
field max 1
field sum 82
field sqrsum 82
statistic Mesh.router[14].port[1].sched link-utilization
field count 1
field mean 4.0586245772266
field stddev nan
field min 4.0586245772266
field max 4.0586245772266
field sum 4.0586245772266
field sqrsum 16.472433458868
statistic Mesh.router[14].port[2].sched number-used-VCs
field count 96
field mean 1
field stddev 0
field min 1
field max 1
field sum 96
field sqrsum 96
statistic Mesh.router[14].port[2].sched link-utilization
field count 1
field mean 7.2153325817362
field stddev nan
field min 7.2153325817362
field max 7.2153325817362
field sum 7.2153325817362
field sqrsum 52.061024265064
statistic Mesh.router[14].port[3].sched number-used-VCs
field count 0
field mean nan
field stddev nan
field min nan
field max nan
field sum 0
field sqrsum 0
statistic Mesh.router[14].port[3].sched link-utilization
field count 1
field mean -1
field stddev nan
field min -1
field max -1
field sum -1
field sqrsum 1
statistic Mesh.router[14].port[4].sched number-used-VCs
field count 311
field mean 1
field stddev 0
field min 1
field max 1
field sum 311
field sqrsum 311
statistic Mesh.router[14].port[4].sched link-utilization
field count 1
field mean 46.223224351748
field stddev nan
field min 46.223224351748
field max 46.223224351748
field sum 46.223224351748
field sqrsum 2136.586469472
statistic Mesh.router[14].port[5].sched number-used-VCs
field count 290
field mean 1.2379310344828
field stddev 0.42655276539168
field min 1
field max 2
field sum 359
field sqrsum 497
statistic Mesh.router[14].port[5].sched link-utilization
field count 1
field mean 21.645997745209
field stddev nan
field min 21.645997745209
field max 21.645997745209
field sum 21.645997745209
field sqrsum 468.54921838557
statistic Mesh.router[14].port[6].sched number-used-VCs
field count 326
field mean 1.4478527607362
field stddev 0.49803767831674
field min 1
field max 2
field sum 472
field sqrsum 764
statistic Mesh.router[14].port[6].sched link-utilization
field count 1
field mean 14.430665163472
field stddev nan
field min 14.430665163472
field max 14.430665163472
field sum 14.430665163472
field sqrsum 208.24409706025
statistic Mesh.router[15].port[0].sched number-used-VCs
field count 96
field mean 1
field stddev 0
field min 1
field max 1
field sum 96
field sqrsum 96
statistic Mesh.router[15].port[0].sched link-utilization
field count 1
field mean 14.430665163472
field stddev nan
field min 14.430665163472
field max 14.430665163472
field sum 14.430665163472
field sqrsum 208.24409706025
statistic Mesh.router[15].port[1].sched number-used-VCs
field count 0
field mean nan
field stddev nan
field min nan
field max nan
field sum 0
field sqrsum 0
statistic Mesh.router[15].port[1].sched link-utilization
field count 1
field mean -1
field stddev nan
field min -1
field max -1
field sum -1
field sqrsum 1
statistic Mesh.router[15].port[2].sched number-used-VCs
field count 0
field mean nan
field stddev nan
field min nan
field max nan
field sum 0
field sqrsum 0
statistic Mesh.router[15].port[2].sched link-utilization
field count 1
field mean -1
field stddev nan
field min -1
field max -1
field sum -1
field sqrsum 1
statistic Mesh.router[15].port[3].sched number-used-VCs
field count 32
field mean 1
field stddev 0
field min 1
field max 1
field sum 32
field sqrsum 32
statistic Mesh.router[15].port[3].sched link-utilization
field count 1
field mean 0
field stddev nan
field min 0
field max 0
field sum 0
field sqrsum 0
statistic Mesh.router[15].port[4].sched number-used-VCs
field count 370
field mean 1.1081081081081
field stddev 0.31093736974117
field min 1
field max 2
field sum 410
field sqrsum 490
statistic Mesh.router[15].port[4].sched link-utilization
field count 1
field mean 23.675310033822
field stddev nan
field min 23.675310033822
field max 23.675310033822
field sum 23.675310033822
field sqrsum 560.52030519759
statistic Mesh.router[15].port[5].sched number-used-VCs
field count 286
field mean 1.2692307692308
field stddev 0.44433759399346
field min 1
field max 2
field sum 363
field sqrsum 517
statistic Mesh.router[15].port[5].sched link-utilization
field count 1
field mean 43.517474633596
field stddev nan
field min 43.517474633596
field max 43.517474633596
field sum 43.517474633596
field sqrsum 1893.7705984857
statistic Mesh.router[15].port[6].sched number-used-VCs
field count 254
field mean 1.0866141732283
field stddev 0.28182415528461
field min 1
field max 2
field sum 276
field sqrsum 320
statistic Mesh.router[15].port[6].sched link-utilization
field count 1
field mean 19.842164599774
field stddev nan
field min 19.842164599774
field max 19.842164599774
field sum 19.842164599774
field sqrsum 393.71149600454
statistic Mesh.router[16].port[0].sched number-used-VCs
field count 128
field mean 1.1875
field stddev 0.39184602471713
field min 1
field max 2
field sum 152
field sqrsum 200
statistic Mesh.router[16].port[0].sched link-utilization
field count 1
field mean 12.17587373168
field stddev nan
field min 12.17587373168
field max 12.17587373168
field sum 12.17587373168
field sqrsum 148.25190112981
statistic Mesh.router[16].port[1].sched number-used-VCs
field count 32
field mean 1
field stddev 0
field min 1
field max 1
field sum 32
field sqrsum 32
statistic Mesh.router[16].port[1].sched link-utilization
field count 1
field mean 0
field stddev nan
field min 0
field max 0
field sum 0
field sqrsum 0
statistic Mesh.router[16].port[2].sched number-used-VCs
field count 0
field mean nan
field stddev nan
field min nan
field max nan
field sum 0
field sqrsum 0
statistic Mesh.router[16].port[2].sched link-utilization
field count 1
field mean -1
field stddev nan
field min -1
field max -1
field sum -1
field sqrsum 1
statistic Mesh.router[16].port[3].sched number-used-VCs
field count 128
field mean 1
field stddev 0
field min 1
field max 1
field sum 128
field sqrsum 128
statistic Mesh.router[16].port[3].sched link-utilization
field count 1
field mean 14.430665163472
field stddev nan
field min 14.430665163472
field max 14.430665163472
field sum 14.430665163472
field sqrsum 208.24409706025
statistic Mesh.router[16].port[4].sched number-used-VCs
field count 456
field mean 1.0877192982456
field stddev 0.28319693016192
field min 1
field max 2
field sum 496
field sqrsum 576
statistic Mesh.router[16].port[4].sched link-utilization
field count 1
field mean 53.213077790304
field stddev nan
field min 53.213077790304
field max 53.213077790304
field sum 53.213077790304
field sqrsum 2831.631647917
statistic Mesh.router[16].port[5].sched number-used-VCs
field count 352
field mean 1.1761363636364
field stddev 0.38147840112616
field min 1
field max 2
field sum 414
field sqrsum 538
statistic Mesh.router[16].port[5].sched link-utilization
field count 1
field mean 36.076662908681
field stddev nan
field min 36.076662908681
field max 36.076662908681
field sum 36.076662908681
field sqrsum 1301.5256066266
statistic Mesh.router[16].port[6].sched number-used-VCs
field count 257
field mean 1.124513618677
field stddev 0.33081081854342
field min 1
field max 2
field sum 289
field sqrsum 353
statistic Mesh.router[16].port[6].sched link-utilization
field count 1
field mean 28.861330326945
field stddev nan
field min 28.861330326945
field max 28.861330326945
field sum 28.861330326945
field sqrsum 832.97638824102
statistic Mesh.router[17].port[0].sched number-used-VCs
field count 0
field mean nan
field stddev nan
field min nan
field max nan
field sum 0
field sqrsum 0
statistic Mesh.router[17].port[0].sched link-utilization
field count 1
field mean 0
field stddev nan
field min 0
field max 0
field sum 0
field sqrsum 0
statistic Mesh.router[17].port[1].sched number-used-VCs
field count 64
field mean 1
field stddev 0
field min 1
field max 1
field sum 64
field sqrsum 64
statistic Mesh.router[17].port[1].sched link-utilization
field count 1
field mean 6.5388951521984
field stddev nan
field min 6.5388951521984
field max 6.5388951521984
field sum 6.5388951521984
field sqrsum 42.757149811444
statistic Mesh.router[17].port[2].sched number-used-VCs
field count 0
field mean nan
field stddev nan
field min nan
field max nan
field sum 0
field sqrsum 0
statistic Mesh.router[17].port[2].sched link-utilization
field count 1
field mean -1
field stddev nan
field min -1
field max -1
field sum -1
field sqrsum 1
statistic Mesh.router[17].port[3].sched number-used-VCs
field count 0
field mean nan
field stddev nan
field min nan
field max nan
field sum 0
field sqrsum 0
statistic Mesh.router[17].port[3].sched link-utilization
field count 1
field mean -1
field stddev nan
field min -1
field max -1
field sum -1
field sqrsum 1
statistic Mesh.router[17].port[4].sched number-used-VCs
field count 492
field mean 1.0975609756098
field stddev 0.29702212872204
field min 1
field max 2
field sum 540
field sqrsum 636
statistic Mesh.router[17].port[4].sched link-utilization
field count 1
field mean 59.301014656144
field stddev nan
field min 59.301014656144
field max 59.301014656144
field sum 59.301014656144
field sqrsum 3516.6103392482
statistic Mesh.router[17].port[5].sched number-used-VCs
field count 202
field mean 1.2673267326733
field stddev 0.44366383017684
field min 1
field max 2
field sum 256
field sqrsum 364
statistic Mesh.router[17].port[5].sched link-utilization
field count 1
field mean 9.4701240135288
field stddev nan
field min 9.4701240135288
field max 9.4701240135288
field sum 9.4701240135288
field sqrsum 89.683248831614
statistic Mesh.router[17].port[6].sched number-used-VCs
field count 295
field mean 1.3423728813559
field stddev 0.4753099203157
field min 1
field max 2
field sum 396
field sqrsum 598
statistic Mesh.router[17].port[6].sched link-utilization
field count 1
field mean 41.262683201804
field stddev nan
field min 41.262683201804
field max 41.262683201804
field sum 41.262683201804
field sqrsum 1702.6090250124
statistic Mesh.router[18].port[0].sched number-used-VCs
field count 0
field mean nan
field stddev nan
field min nan
field max nan
field sum 0
field sqrsum 0
statistic Mesh.router[18].port[0].sched link-utilization
field count 1
field mean -1
field stddev nan
field min -1
field max -1
field sum -1
field sqrsum 1
statistic Mesh.router[18].port[1].sched number-used-VCs
field count 0
field mean nan
field stddev nan
field min nan
field max nan
field sum 0
field sqrsum 0
statistic Mesh.router[18].port[1].sched link-utilization
field count 1
field mean -1
field stddev nan
field min -1
field max -1
field sum -1
field sqrsum 1
statistic Mesh.router[18].port[2].sched number-used-VCs
field count 192
field mean 1.125
field stddev 0.33158353997003
field min 1
field max 2
field sum 216
field sqrsum 264
statistic Mesh.router[18].port[2].sched link-utilization
field count 1
field mean 28.861330326945
field stddev nan
field min 28.861330326945
field max 28.861330326945
field sum 28.861330326945
field sqrsum 832.97638824102
statistic Mesh.router[18].port[3].sched number-used-VCs
field count 376
field mean 1.2420212765957
field stddev 0.42887780335751
field min 1
field max 2
field sum 467
field sqrsum 649
statistic Mesh.router[18].port[3].sched link-utilization
field count 1
field mean 43.291995490417
field stddev nan
field min 43.291995490417
field max 43.291995490417
field sum 43.291995490417
field sqrsum 1874.1968735423
statistic Mesh.router[18].port[4].sched number-used-VCs
field count 498
field mean 1.1144578313253
field stddev 0.31868663962357
field min 1
field max 2
field sum 555
field sqrsum 669
statistic Mesh.router[18].port[4].sched link-utilization
field count 1
field mean 52.536640360767
field stddev nan
field min 52.536640360767
field max 52.536640360767
field sum 52.536640360767
field sqrsum 2760.0985803965
statistic Mesh.router[18].port[5].sched number-used-VCs
field count 138
field mean 1.1884057971014
field stddev 0.39246041480948
field min 1
field max 2
field sum 164
field sqrsum 216
statistic Mesh.router[18].port[5].sched link-utilization
field count 1
field mean 14.430665163472
field stddev nan
field min 14.430665163472
field max 14.430665163472
field sum 14.430665163472
field sqrsum 208.24409706025
statistic Mesh.router[18].port[6].sched number-used-VCs
field count 0
field mean nan
field stddev nan
field min nan
field max nan
field sum 0
field sqrsum 0
statistic Mesh.router[18].port[6].sched link-utilization
field count 1
field mean -1
field stddev nan
field min -1
field max -1
field sum -1
field sqrsum 1
statistic Mesh.router[19].port[0].sched number-used-VCs
field count 0
field mean nan
field stddev nan
field min nan
field max nan
field sum 0
field sqrsum 0
statistic Mesh.router[19].port[0].sched link-utilization
field count 1
field mean -1
field stddev nan
field min -1
field max -1
field sum -1
field sqrsum 1
statistic Mesh.router[19].port[1].sched number-used-VCs
field count 192
field mean 1.046875
field stddev 0.21192368724298
field min 1
field max 2
field sum 201
field sqrsum 219
statistic Mesh.router[19].port[1].sched link-utilization
field count 1
field mean 20.293122886133
field stddev nan
field min 20.293122886133
field max 20.293122886133
field sum 20.293122886133
field sqrsum 411.8108364717
statistic Mesh.router[19].port[2].sched number-used-VCs
field count 465
field mean 1.4387096774194
field stddev 0.49676372004041
field min 1
field max 2
field sum 669
field sqrsum 1077
statistic Mesh.router[19].port[2].sched link-utilization
field count 1
field mean 41.037204058625
field stddev nan
field min 41.037204058625
field max 41.037204058625
field sum 41.037204058625
field sqrsum 1684.0521169492
statistic Mesh.router[19].port[3].sched number-used-VCs
field count 369
field mean 1.2737127371274
field stddev 0.4464686729788
field min 1
field max 2
field sum 470
field sqrsum 672
statistic Mesh.router[19].port[3].sched link-utilization
field count 1
field mean 51.183765501691
field stddev nan
field min 51.183765501691
field max 51.183765501691
field sum 51.183765501691
field sqrsum 2619.7778509321
statistic Mesh.router[19].port[4].sched number-used-VCs
field count 539
field mean 1.1465677179963
field stddev 0.35400299884867
field min 1
field max 2
field sum 618
field sqrsum 776
statistic Mesh.router[19].port[4].sched link-utilization
field count 1
field mean 76.211950394588
field stddev nan
field min 76.211950394588
field max 76.211950394588
field sum 76.211950394588
field sqrsum 5808.2613829472
statistic Mesh.router[19].port[5].sched number-used-VCs
field count 261
field mean 1.183908045977
field stddev 0.38815348764822
field min 1
field max 2
field sum 309
field sqrsum 405
statistic Mesh.router[19].port[5].sched link-utilization
field count 1
field mean 21.645997745209
field stddev nan
field min 21.645997745209
field max 21.645997745209
field sum 21.645997745209
field sqrsum 468.54921838557
statistic Mesh.router[19].port[6].sched number-used-VCs
field count 0
field mean nan
field stddev nan
field min nan
field max nan
field sum 0
field sqrsum 0
statistic Mesh.router[19].port[6].sched link-utilization
field count 1
field mean -1
field stddev nan
field min -1
field max -1
field sum -1
field sqrsum 1
statistic Mesh.router[20].port[0].sched number-used-VCs
field count 0
field mean nan
field stddev nan
field min nan
field max nan
field sum 0
field sqrsum 0
statistic Mesh.router[20].port[0].sched link-utilization
field count 1
field mean -1
field stddev nan
field min -1
field max -1
field sum -1
field sqrsum 1
statistic Mesh.router[20].port[1].sched number-used-VCs
field count 291
field mean 1.1683848797251
field stddev 0.37485234285383
field min 1
field max 2
field sum 340
field sqrsum 438
statistic Mesh.router[20].port[1].sched link-utilization
field count 1
field mean 28.861330326945
field stddev nan
field min 28.861330326945
field max 28.861330326945
field sum 28.861330326945
field sqrsum 832.97638824102
statistic Mesh.router[20].port[2].sched number-used-VCs
field count 616
field mean 1.5681818181818
field stddev 0.49573196868325
field min 1
field max 2
field sum 966
field sqrsum 1666
statistic Mesh.router[20].port[2].sched link-utilization
field count 1
field mean 69.447576099211
field stddev nan
field min 69.447576099211
field max 69.447576099211
field sum 69.447576099211
field sqrsum 4822.9658260557
statistic Mesh.router[20].port[3].sched number-used-VCs
field count 0
field mean nan
field stddev nan
field min nan
field max nan
field sum 0
field sqrsum 0
statistic Mesh.router[20].port[3].sched link-utilization
field count 1
field mean -1
field stddev nan
field min -1
field max -1
field sum -1
field sqrsum 1
statistic Mesh.router[20].port[4].sched number-used-VCs
field count 435
field mean 1.1149425287356
field stddev 0.3193198184564
field min 1
field max 2
field sum 485
field sqrsum 585
statistic Mesh.router[20].port[4].sched link-utilization
field count 1
field mean 47.350620067644
field stddev nan
field min 47.350620067644
field max 47.350620067644
field sum 47.350620067644
field sqrsum 2242.0812207904
statistic Mesh.router[20].port[5].sched number-used-VCs
field count 196
field mean 1.1581632653061
field stddev 0.36582845058719
field min 1
field max 2
field sum 227
field sqrsum 289
statistic Mesh.router[20].port[5].sched link-utilization
field count 1
field mean 0
field stddev nan
field min 0
field max 0
field sum 0
field sqrsum 0
statistic Mesh.router[20].port[6].sched number-used-VCs
field count 0
field mean nan
field stddev nan
field min nan
field max nan
field sum 0
field sqrsum 0
statistic Mesh.router[20].port[6].sched link-utilization
field count 1
field mean -1
field stddev nan
field min -1
field max -1
field sum -1
field sqrsum 1
statistic Mesh.router[21].port[0].sched number-used-VCs
field count 331
field mean 1.2688821752266
field stddev 0.44404984160883
field min 1
field max 2
field sum 420
field sqrsum 598
statistic Mesh.router[21].port[0].sched link-utilization
field count 1
field mean 36.527621195039
field stddev nan
field min 36.527621195039
field max 36.527621195039
field sum 36.527621195039
field sqrsum 1334.2671101683
statistic Mesh.router[21].port[1].sched number-used-VCs
field count 0
field mean nan
field stddev nan
field min nan
field max nan
field sum 0
field sqrsum 0
statistic Mesh.router[21].port[1].sched link-utilization
field count 1
field mean -1
field stddev nan
field min -1
field max -1
field sum -1
field sqrsum 1
statistic Mesh.router[21].port[2].sched number-used-VCs
field count 544
field mean 1.3878676470588
field stddev 0.48771260457403
field min 1
field max 2
field sum 755
field sqrsum 1177
statistic Mesh.router[21].port[2].sched link-utilization
field count 1
field mean 56.144306651635
field stddev nan
field min 56.144306651635
field max 56.144306651635
field sum 56.144306651635
field sqrsum 3152.1831693928
statistic Mesh.router[21].port[3].sched number-used-VCs
field count 326
field mean 1.5521472392638
field stddev 0.49803767831674
field min 1
field max 2
field sum 506
field sqrsum 866
statistic Mesh.router[21].port[3].sched link-utilization
field count 1
field mean 36.076662908681
field stddev nan
field min 36.076662908681
field max 36.076662908681
field sum 36.076662908681
field sqrsum 1301.5256066266
statistic Mesh.router[21].port[4].sched number-used-VCs
field count 448
field mean 1.1986607142857
field stddev 0.39943807405903
field min 1
field max 2
field sum 537
field sqrsum 715
statistic Mesh.router[21].port[4].sched link-utilization
field count 1
field mean 24.35174746336
field stddev nan
field min 24.35174746336
field max 24.35174746336
field sum 24.35174746336
field sqrsum 593.00760451924
statistic Mesh.router[21].port[5].sched number-used-VCs
field count 291
field mean 1.2852233676976
field stddev 0.45229857578702
field min 1
field max 2
field sum 374
field sqrsum 540
statistic Mesh.router[21].port[5].sched link-utilization
field count 1
field mean 19.391206313416
field stddev nan
field min 19.391206313416
field max 19.391206313416
field sum 19.391206313416
field sqrsum 376.01888228946
statistic Mesh.router[21].port[6].sched number-used-VCs
field count 0
field mean nan
field stddev nan
field min nan
field max nan
field sum 0
field sqrsum 0
statistic Mesh.router[21].port[6].sched link-utilization
field count 1
field mean -1
field stddev nan
field min -1
field max -1
field sum -1
field sqrsum 1
statistic Mesh.router[22].port[0].sched number-used-VCs
field count 458
field mean 1.4017467248908
field stddev 0.49078734274518
field min 1
field max 2
field sum 642
field sqrsum 1010
statistic Mesh.router[22].port[0].sched link-utilization
field count 1
field mean 64.036076662909
field stddev nan
field min 64.036076662909
field max 64.036076662909
field sum 64.036076662909
field sqrsum 4100.6191143779
statistic Mesh.router[22].port[1].sched number-used-VCs
field count 582
field mean 1.4518900343643
field stddev 0.49810816098334
field min 1
field max 2
field sum 845
field sqrsum 1371
statistic Mesh.router[22].port[1].sched link-utilization
field count 1
field mean 40.135287485907
field stddev nan
field min 40.135287485907
field max 40.135287485907
field sum 40.135287485907
field sqrsum 1610.8413015764
statistic Mesh.router[22].port[2].sched number-used-VCs
field count 276
field mean 1.1231884057971
field stddev 0.32925035626625
field min 1
field max 2
field sum 310
field sqrsum 378
statistic Mesh.router[22].port[2].sched link-utilization
field count 1
field mean 19.391206313416
field stddev nan
field min 19.391206313416
field max 19.391206313416
field sum 19.391206313416
field sqrsum 376.01888228947
statistic Mesh.router[22].port[3].sched number-used-VCs
field count 490
field mean 1.3714285714286
field stddev 0.48368050432682
field min 1
field max 2
field sum 672
field sqrsum 1036
statistic Mesh.router[22].port[3].sched link-utilization
field count 1
field mean 39.909808342728
field stddev nan
field min 39.909808342728
field max 39.909808342728
field sum 39.909808342728
field sqrsum 1592.7928019533
statistic Mesh.router[22].port[4].sched number-used-VCs
field count 437
field mean 1.1922196796339
field stddev 0.39449638930091
field min 1
field max 2
field sum 521
field sqrsum 689
statistic Mesh.router[22].port[4].sched link-utilization
field count 1
field mean 57.722660653889
field stddev nan
field min 57.722660653889
field max 57.722660653889
field sum 57.722660653889
field sqrsum 3331.9055529641
statistic Mesh.router[22].port[5].sched number-used-VCs
field count 327
field mean 1.17125382263
field stddev 0.37730797306987
field min 1
field max 2
field sum 383
field sqrsum 495
statistic Mesh.router[22].port[5].sched link-utilization
field count 1
field mean 45.54678692221
field stddev nan
field min 45.54678692221
field max 45.54678692221
field sum 45.54678692221
field sqrsum 2074.5097989372
statistic Mesh.router[22].port[6].sched number-used-VCs
field count 0
field mean nan
field stddev nan
field min nan
field max nan
field sum 0
field sqrsum 0
statistic Mesh.router[22].port[6].sched link-utilization
field count 1
field mean -1
field stddev nan
field min -1
field max -1
field sum -1
field sqrsum 1
statistic Mesh.router[23].port[0].sched number-used-VCs
field count 395
field mean 1.2481012658228
field stddev 0.43245866546228
field min 1
field max 2
field sum 493
field sqrsum 689
statistic Mesh.router[23].port[0].sched link-utilization
field count 1
field mean 14.430665163472
field stddev nan
field min 14.430665163472
field max 14.430665163472
field sum 14.430665163472
field sqrsum 208.24409706025
statistic Mesh.router[23].port[1].sched number-used-VCs
field count 646
field mean 1.3730650154799
field stddev 0.4839939317791
field min 1
field max 2
field sum 887
field sqrsum 1369
statistic Mesh.router[23].port[1].sched link-utilization
field count 1
field mean 70.124013528749
field stddev nan
field min 70.124013528749
field max 70.124013528749
field sum 70.124013528749
field sqrsum 4917.3772733801
statistic Mesh.router[23].port[2].sched number-used-VCs
field count 232
field mean 1.5560344827586
field stddev 0.49792448759083
field min 1
field max 2
field sum 361
field sqrsum 619
statistic Mesh.router[23].port[2].sched link-utilization
field count 1
field mean 33.596392333709
field stddev nan
field min 33.596392333709
field max 33.596392333709
field sum 33.596392333709
field sqrsum 1128.7175778405
statistic Mesh.router[23].port[3].sched number-used-VCs
field count 0
field mean nan
field stddev nan
field min nan
field max nan
field sum 0
field sqrsum 0
statistic Mesh.router[23].port[3].sched link-utilization
field count 1
field mean -1
field stddev nan
field min -1
field max -1
field sum -1
field sqrsum 1
statistic Mesh.router[23].port[4].sched number-used-VCs
field count 562
field mean 1.1476868327402
field stddev 0.35510534924136
field min 1
field max 2
field sum 645
field sqrsum 811
statistic Mesh.router[23].port[4].sched link-utilization
field count 1
field mean 47.350620067644
field stddev nan
field min 47.350620067644
field max 47.350620067644
field sum 47.350620067644
field sqrsum 2242.0812207904
statistic Mesh.router[23].port[5].sched number-used-VCs
field count 249
field mean 1.0321285140562
field stddev 0.17669652185851
field min 1
field max 2
field sum 257
field sqrsum 273
statistic Mesh.router[23].port[5].sched link-utilization
field count 1
field mean 26.606538895152
field stddev nan
field min 26.606538895152
field max 26.606538895152
field sum 26.606538895152
field sqrsum 707.90791197924
statistic Mesh.router[23].port[6].sched number-used-VCs
field count 0
field mean nan
field stddev nan
field min nan
field max nan
field sum 0
field sqrsum 0
statistic Mesh.router[23].port[6].sched link-utilization
field count 1
field mean -1
field stddev nan
field min -1
field max -1
field sum -1
field sqrsum 1
statistic Mesh.router[24].port[0].sched number-used-VCs
field count 542
field mean 1.4612546125461
field stddev 0.49895703952266
field min 1
field max 2
field sum 792
field sqrsum 1292
statistic Mesh.router[24].port[0].sched link-utilization
field count 1
field mean 50.732807215333
field stddev nan
field min 50.732807215333
field max 50.732807215333
field sum 50.732807215333
field sqrsum 2573.8177279481
statistic Mesh.router[24].port[1].sched number-used-VCs
field count 0
field mean nan
field stddev nan
field min nan
field max nan
field sum 0
field sqrsum 0
statistic Mesh.router[24].port[1].sched link-utilization
field count 1
field mean -1
field stddev nan
field min -1
field max -1
field sum -1
field sqrsum 1
statistic Mesh.router[24].port[2].sched number-used-VCs
field count 0
field mean nan
field stddev nan
field min nan
field max nan
field sum 0
field sqrsum 0
statistic Mesh.router[24].port[2].sched link-utilization
field count 1
field mean -1
field stddev nan
field min -1
field max -1
field sum -1
field sqrsum 1
statistic Mesh.router[24].port[3].sched number-used-VCs
field count 299
field mean 1.4280936454849
field stddev 0.4956319719346
field min 1
field max 2
field sum 427
field sqrsum 683
statistic Mesh.router[24].port[3].sched link-utilization
field count 1
field mean 21.871476888388
field stddev nan
field min 21.871476888388
field max 21.871476888388
field sum 21.871476888388
field sqrsum 478.36150127928
statistic Mesh.router[24].port[4].sched number-used-VCs
field count 430
field mean 1.1604651162791
field stddev 0.36746440125933
field min 1
field max 2
field sum 499
field sqrsum 637
statistic Mesh.router[24].port[4].sched link-utilization
field count 1
field mean 41.488162344983
field stddev nan
field min 41.488162344983
field max 41.488162344983
field sum 41.488162344983
field sqrsum 1721.2676147637
statistic Mesh.router[24].port[5].sched number-used-VCs
field count 304
field mean 1.2894736842105
field stddev 0.45426586692492
field min 1
field max 2
field sum 392
field sqrsum 568
statistic Mesh.router[24].port[5].sched link-utilization
field count 1
field mean 37.880496054115
field stddev nan
field min 37.880496054115
field max 37.880496054115
field sum 37.880496054115
field sqrsum 1434.9319813058
statistic Mesh.router[24].port[6].sched number-used-VCs
field count 0
field mean nan
field stddev nan
field min nan
field max nan
field sum 0
field sqrsum 0
statistic Mesh.router[24].port[6].sched link-utilization
field count 1
field mean -1
field stddev nan
field min -1
field max -1
field sum -1
field sqrsum 1
statistic Mesh.router[25].port[0].sched number-used-VCs
field count 452
field mean 1.2477876106195
field stddev 0.4322061890163
field min 1
field max 2
field sum 564
field sqrsum 788
statistic Mesh.router[25].port[0].sched link-utilization
field count 1
field mean 54.114994363021
field stddev nan
field min 54.114994363021
field max 54.114994363021
field sum 54.114994363021
field sqrsum 2928.4326149098
statistic Mesh.router[25].port[1].sched number-used-VCs
field count 407
field mean 1.4422604422604
field stddev 0.49726622200745
field min 1
field max 2
field sum 587
field sqrsum 947
statistic Mesh.router[25].port[1].sched link-utilization
field count 1
field mean 43.517474633596
field stddev nan
field min 43.517474633596
field max 43.517474633596
field sum 43.517474633596
field sqrsum 1893.7705984857
statistic Mesh.router[25].port[2].sched number-used-VCs
field count 0
field mean nan
field stddev nan
field min nan
field max nan
field sum 0
field sqrsum 0
statistic Mesh.router[25].port[2].sched link-utilization
field count 1
field mean -1
field stddev nan
field min -1
field max -1
field sum -1
field sqrsum 1
statistic Mesh.router[25].port[3].sched number-used-VCs
field count 232
field mean 1.1422413793103
field stddev 0.35005277575361
field min 1
field max 2
field sum 265
field sqrsum 331
statistic Mesh.router[25].port[3].sched link-utilization
field count 1
field mean 11.724915445321
field stddev nan
field min 11.724915445321
field max 11.724915445321
field sum 11.724915445321
field sqrsum 137.47364219993
statistic Mesh.router[25].port[4].sched number-used-VCs
field count 295
field mean 1.1423728813559
field stddev 0.35002594161904
field min 1
field max 2
field sum 337
field sqrsum 421
statistic Mesh.router[25].port[4].sched link-utilization
field count 1
field mean 28.861330326945
field stddev nan
field min 28.861330326945
field max 28.861330326945
field sum 28.861330326945
field sqrsum 832.97638824102
statistic Mesh.router[25].port[5].sched number-used-VCs
field count 329
field mean 1.2492401215805
field stddev 0.43323200436355
field min 1
field max 2
field sum 411
field sqrsum 575
statistic Mesh.router[25].port[5].sched link-utilization
field count 1
field mean 33.37091319053
field stddev nan
field min 33.37091319053
field max 33.37091319053
field sum 33.37091319053
field sqrsum 1113.6178471699
statistic Mesh.router[25].port[6].sched number-used-VCs
field count 0
field mean nan
field stddev nan
field min nan
field max nan
field sum 0
field sqrsum 0
statistic Mesh.router[25].port[6].sched link-utilization
field count 1
field mean -1
field stddev nan
field min -1
field max -1
field sum -1
field sqrsum 1
statistic Mesh.router[26].port[0].sched number-used-VCs
field count 128
field mean 1
field stddev 0
field min 1
field max 1
field sum 128
field sqrsum 128
statistic Mesh.router[26].port[0].sched link-utilization
field count 1
field mean 7.2153325817362
field stddev nan
field min 7.2153325817362
field max 7.2153325817362
field sum 7.2153325817362
field sqrsum 52.061024265064
statistic Mesh.router[26].port[1].sched number-used-VCs
field count 437
field mean 1.3340961098398
field stddev 0.47221410933351
field min 1
field max 2
field sum 583
field sqrsum 875
statistic Mesh.router[26].port[1].sched link-utilization
field count 1
field mean 57.49718151071
field stddev nan
field min 57.49718151071
field max 57.49718151071
field sum 57.49718151071
field sqrsum 3305.9258816756
statistic Mesh.router[26].port[2].sched number-used-VCs
field count 0
field mean nan
field stddev nan
field min nan
field max nan
field sum 0
field sqrsum 0
statistic Mesh.router[26].port[2].sched link-utilization
field count 1
field mean -1
field stddev nan
field min -1
field max -1
field sum -1
field sqrsum 1
statistic Mesh.router[26].port[3].sched number-used-VCs
field count 0
field mean nan
field stddev nan
field min nan
field max nan
field sum 0
field sqrsum 0
statistic Mesh.router[26].port[3].sched link-utilization
field count 1
field mean -1
field stddev nan
field min -1
field max -1
field sum -1
field sqrsum 1
statistic Mesh.router[26].port[4].sched number-used-VCs
field count 440
field mean 1.2136363636364
field stddev 0.4103395499862
field min 1
field max 2
field sum 534
field sqrsum 722
statistic Mesh.router[26].port[4].sched link-utilization
field count 1
field mean 53.438556933484
field stddev nan
field min 53.438556933484
field max 53.438556933484
field sum 53.438556933484
field sqrsum 2855.6793671332
statistic Mesh.router[26].port[5].sched number-used-VCs
field count 194
field mean 1
field stddev 0
field min 1
field max 1
field sum 194
field sqrsum 194
statistic Mesh.router[26].port[5].sched link-utilization
field count 1
field mean 26.606538895152
field stddev nan
field min 26.606538895152
field max 26.606538895152
field sum 26.606538895152
field sqrsum 707.90791197925
statistic Mesh.router[26].port[6].sched number-used-VCs
field count 0
field mean nan
field stddev nan
field min nan
field max nan
field sum 0
field sqrsum 0
statistic Mesh.router[26].port[6].sched link-utilization
field count 1
field mean -1
field stddev nan
field min -1
field max -1
field sum -1
field sqrsum 1
statistic Mesh.core[0].source dstId-Hist
field count 56
field mean 15.357142857143
field stddev 7.7375790703637
field min 3
field max 26
field sum 860
field sqrsum 16500
bin	-inf	0
bin	0	0
bin	1	0
bin	2	0
bin	3	4
bin	4	4
bin	5	0
bin	6	4
bin	7	0
bin	8	0
bin	9	4
bin	10	4
bin	11	0
bin	12	4
bin	13	0
bin	14	0
bin	15	0
bin	16	4
bin	17	0
bin	18	4
bin	19	4
bin	20	0
bin	21	0
bin	22	8
bin	23	4
bin	24	0
bin	25	4
bin	26	4
bin	27	0
bin	28	0
bin	29	0
bin	30	0
bin	31	0
bin	32	0
statistic Mesh.core[0].source Full_Queue_Indicator
field count 40
field mean 0.975
field stddev 0.15811388300842
field min 0
field max 1
field sum 39
field sqrsum 39
statistic Mesh.core[0].source number-sent-packets
field count 1
field mean 40
field stddev nan
field min 40
field max 40
field sum 40
field sqrsum 1600
statistic Mesh.core[0].source number-generated-packets
field count 1
field mean 118
field stddev nan
field min 118
field max 118
field sum 118
field sqrsum 13924
statistic Mesh.core[0].source number-queue-packets
field count 1
field mean 56
field stddev nan
field min 56
field max 56
field sum 56
field sqrsum 3136
statistic Mesh.core[0].source source-queue-size-percent
field count 118
field mean 0.89989406779661
field stddev 0.24145932618937
field min 0.0625
field max 1
field sum 106.1875
field sqrsum 102.37890625
statistic Mesh.core[0].source loss-probability
field count 1
field mean 0.52542372881356
field stddev nan
field min 0.52542372881356
field max 0.52542372881356
field sum 0.52542372881356
field sqrsum 0.27607009480034
scalar Mesh.core[0].sink flit-per-vc-0 59
scalar Mesh.core[0].sink flit-per-vc-1 56
statistic Mesh.core[0].sink SoP-end-to-end-latency-ns
field count 14
field mean 595.85714285714
field stddev 171.34349537287
field min 393
field max 881
field sum 8342
field sqrsum 5352302
statistic Mesh.core[0].sink SoP-E2E-Latency-Hist
field count 14
field mean 595.85714285714
field stddev 171.34349537287
field min 393
field max 881
field sum 8342
field sqrsum 5352302
bin	-inf	0
bin	270	0
bin	280	0
bin	290	0
bin	300	0
bin	310	0
bin	320	0
bin	330	0
bin	340	0
bin	350	0
bin	360	0
bin	370	0
bin	380	0
bin	390	1
bin	400	1
bin	410	1
bin	420	1
bin	430	0
bin	440	0
bin	450	0
bin	460	0
bin	470	0
bin	480	0
bin	490	1
bin	500	0
bin	510	0
bin	520	0
bin	530	0
bin	540	2
bin	550	0
bin	560	0
bin	570	0
bin	580	2
bin	590	0
bin	600	0
bin	610	1
bin	620	0
bin	630	0
bin	640	0
bin	650	0
bin	660	0
bin	670	0
bin	680	0
bin	690	0
bin	700	0
bin	710	0
bin	720	0
bin	730	0
bin	740	0
bin	750	0
bin	760	0
bin	770	0
bin	780	0
bin	790	1
bin	800	1
bin	810	0
bin	820	0
bin	830	0
bin	840	1
bin	850	0
bin	860	0
bin	870	0
bin	880	1
bin	890	0
bin	900	0
bin	910	0
bin	920	0
bin	930	0
bin	940	0
bin	950	0
bin	960	0
bin	970	0
bin	980	0
bin	990	0
bin	1000	0
bin	1010	0
statistic Mesh.core[0].sink SoP-network-latency-ns
field count 14
field mean 19.285714285714
field stddev 11.730489998478
field min 6
field max 46
field sum 270
field sqrsum 6996
statistic Mesh.core[0].sink SoP-queueing-time-ns
field count 14
field mean 574.57142857143
field stddev 172.72686944587
field min 369
field max 867
field sum 8044
field sqrsum 5009702
statistic Mesh.core[0].sink EoP-end-to-end-latency-ns
field count 14
field mean 616.57142857143
field stddev 171.12330879569
field min 407
field max 895
field sum 8632
field sqrsum 5702926
statistic Mesh.core[0].sink EoP-network-latency-ns
field count 14
field mean 9.1428571428572
field stddev 2.4449993820085
field min 6
field max 12
field sum 128
field sqrsum 1248
statistic Mesh.core[0].sink EoP-queueing-time-ns
field count 14
field mean 605.42857142857
field stddev 171.54712933307
field min 393
field max 883
field sum 8476
field sqrsum 5514182
statistic Mesh.core[0].sink packet-network-latency-ns
field count 13
field mean 31.846153846154
field stddev 10.846244771396
field min 20
field max 60
field sum 414
field sqrsum 14596
statistic Mesh.core[0].sink network-latency-ns
field count 115
field mean 12.173913043478
field stddev 8.0156216661047
field min 5.9999999999998
field max 46
field sum 1400
field sqrsum 24368
statistic Mesh.core[0].sink end-to-end-latency-ns
field count 115
field mean 604.93043478261
field stddev 163.91802196601
field min 393
field max 895
field sum 69567
field sqrsum 45146275
statistic Mesh.core[0].sink source-id
field count 263
field mean 12.988593155894
field stddev 7.2171778173205
field min 3
field max 26
field sum 3416
field sqrsum 58016
statistic Mesh.core[0].sink destination-id
field count 263
field mean 0
field stddev 0
field min 0
field max 0
field sum 0
field sqrsum 0
statistic Mesh.core[0].sink hop-count
field count 263
field mean 0.41444866920152
field stddev 1.6894656717267
field min 0
field max 14
field sum 109
field sqrsum 793
statistic Mesh.core[0].sink number-received-packets
field count 1
field mean 14
field stddev nan
field min 14
field max 14
field sum 14
field sqrsum 196
scalar Mesh.core[0].sink Sink-Total-BW-MBps 518.60202931229
statistic Mesh.core[1].source dstId-Hist
field count 63
field mean 13.333333333333
field stddev 8.2930207734207
field min 0
field max 26
field sum 840
field sqrsum 15464
bin	-inf	0
bin	0	3
bin	1	0
bin	2	8
bin	3	4
bin	4	0
bin	5	0
bin	6	4
bin	7	0
bin	8	0
bin	9	0
bin	10	0
bin	11	4
bin	12	0
bin	13	8
bin	14	0
bin	15	4
bin	16	12
bin	17	0
bin	18	0
bin	19	0
bin	20	0
bin	21	0
bin	22	4
bin	23	0
bin	24	4
bin	25	4
bin	26	4
bin	27	0
bin	28	0
bin	29	0
bin	30	0
bin	31	0
bin	32	0
bin	33	0
statistic Mesh.core[1].source Full_Queue_Indicator
field count 32
field mean 0.96875
field stddev 0.17677669529664
field min 0
field max 1
field sum 31
field sqrsum 31
statistic Mesh.core[1].source number-sent-packets
field count 1
field mean 47
field stddev nan
field min 47
field max 47
field sum 47
field sqrsum 2209
statistic Mesh.core[1].source number-generated-packets
field count 1
field mean 118
field stddev nan
field min 118
field max 118
field sum 118
field sqrsum 13924
statistic Mesh.core[1].source number-queue-packets
field count 1
field mean 63
field stddev nan
field min 63
field max 63
field sum 63
field sqrsum 3969
statistic Mesh.core[1].source source-queue-size-percent
field count 118
field mean 0.8771186440678
field stddev 0.26515650658198
field min 0.0625
field max 1
field sum 103.5
field sqrsum 99.0078125
statistic Mesh.core[1].source loss-probability
field count 1
field mean 0.46610169491525
field stddev nan
field min 0.46610169491525
field max 0.46610169491525
field sum 0.46610169491525
field sqrsum 0.21725079000287
scalar Mesh.core[1].sink flit-per-vc-0 72
scalar Mesh.core[1].sink flit-per-vc-1 70
statistic Mesh.core[1].sink SoP-end-to-end-latency-ns
field count 18
field mean 522.88888888889
field stddev 116.24815691841
field min 359
field max 793
field sum 9412
field sqrsum 5151162
statistic Mesh.core[1].sink SoP-E2E-Latency-Hist
field count 18
field mean 522.88888888889
field stddev 116.24815691841
field min 359
field max 793
field sum 9412
field sqrsum 5151162
bin	-inf	0
bin	250	0
bin	260	0
bin	270	0
bin	280	0
bin	290	0
bin	300	0
bin	310	0
bin	320	0
bin	330	0
bin	340	0
bin	350	1
bin	360	0
bin	370	0
bin	380	0
bin	390	0
bin	400	1
bin	410	0
bin	420	1
bin	430	2
bin	440	0
bin	450	1
bin	460	1
bin	470	1
bin	480	2
bin	490	0
bin	500	0
bin	510	2
bin	520	1
bin	530	0
bin	540	0
bin	550	0
bin	560	0
bin	570	1
bin	580	0
bin	590	0
bin	600	0
bin	610	0
bin	620	0
bin	630	0
bin	640	0
bin	650	0
bin	660	1
bin	670	0
bin	680	1
bin	690	1
bin	700	0
bin	710	0
bin	720	0
bin	730	0
bin	740	0
bin	750	0
bin	760	0
bin	770	0
bin	780	0
bin	790	1
bin	800	0
bin	810	0
bin	820	0
bin	830	0
bin	840	0
bin	850	0
bin	860	0
bin	870	0
bin	880	0
bin	890	0
bin	900	0
bin	910	0
statistic Mesh.core[1].sink SoP-network-latency-ns
field count 18
field mean 33.111111111111
field stddev 17.679795343801
field min 6
field max 74
field sum 596
field sqrsum 25048
statistic Mesh.core[1].sink SoP-queueing-time-ns
field count 18
field mean 487.77777777778
field stddev 111.49706171573
field min 327
field max 725
field sum 8780
field sqrsum 4494026
statistic Mesh.core[1].sink EoP-end-to-end-latency-ns
field count 17
field mean 527.23529411765
field stddev 105.79669737979
field min 373
field max 711
field sum 8963
field sqrsum 4904697
statistic Mesh.core[1].sink EoP-network-latency-ns
field count 17
field mean 8.1176470588236
field stddev 1.4950900031928
field min 6
field max 10
field sum 138
field sqrsum 1156
statistic Mesh.core[1].sink EoP-queueing-time-ns
field count 17
field mean 517.11764705882
field stddev 105.92325190494
field min 361
field max 701
field sum 8791
field sqrsum 4725497
statistic Mesh.core[1].sink packet-network-latency-ns
field count 17
field mean 51.411764705882
field stddev 31.510035749602
field min 20
field max 162
[...]
field stddev 5.5696782701844
field min 4
field max 23
field sum 7392
field sqrsum 144224
statistic Mesh.core[22].sink destination-id
field count 416
field mean 22
field stddev 0
field min 22
field max 22
field sum 9152
field sqrsum 201344
statistic Mesh.core[22].sink hop-count
field count 416
field mean 0.45192307692308
field stddev 1.7828084393501
field min 0
field max 15
field sum 188
field sqrsum 1404
statistic Mesh.core[22].sink number-received-packets
field count 1
field mean 32
field stddev nan
field min 32
field max 32
field sum 32
field sqrsum 1024
scalar Mesh.core[22].sink Sink-Total-BW-MBps 1154.4532130778
statistic Mesh.core[23].source dstId-Hist
field count 77
field mean 16.649350649351
field stddev 7.0519990330593
field min 4
field max 26
field sum 1282
field sqrsum 25124
bin	-inf	0
bin	0	0
bin	1	0
bin	2	0
bin	3	0
bin	4	8
bin	5	0
bin	6	4
bin	7	4
bin	8	0
bin	9	0
bin	10	0
bin	11	0
bin	12	8
bin	13	4
bin	14	0
bin	15	0
bin	16	4
bin	17	0
bin	18	5
bin	19	0
bin	20	4
bin	21	8
bin	22	16
bin	23	0
bin	24	8
bin	25	0
bin	26	4
bin	27	0
bin	28	0
bin	29	0
bin	30	0
bin	31	0
bin	32	0
statistic Mesh.core[23].source Full_Queue_Indicator
field count 23
field mean 0.95652173913043
field stddev 0.20851441405707
field min 0
field max 1
field sum 22
field sqrsum 22
statistic Mesh.core[23].source number-sent-packets
field count 1
field mean 62
field stddev nan
field min 62
field max 62
field sum 62
field sqrsum 3844
statistic Mesh.core[23].source number-generated-packets
field count 1
field mean 118
field stddev nan
field min 118
field max 118
field sum 118
field sqrsum 13924
statistic Mesh.core[23].source number-queue-packets
field count 1
field mean 77
field stddev nan
field min 77
field max 77
field sum 77
field sqrsum 5929
statistic Mesh.core[23].source source-queue-size-percent
field count 118
field mean 0.89194915254237
field stddev 0.2235860452145
field min 0.0625
field max 1
field sum 105.25
field sqrsum 99.7265625
statistic Mesh.core[23].source loss-probability
field count 1
field mean 0.34745762711864
field stddev nan
field min 0.34745762711864
field max 0.34745762711864
field sum 0.34745762711864
field sqrsum 0.12072680264292
scalar Mesh.core[23].sink flit-per-vc-0 123
scalar Mesh.core[23].sink flit-per-vc-1 88
statistic Mesh.core[23].sink SoP-end-to-end-latency-ns
field count 26
field mean 487.61538461538
field stddev 75.058951190689
field min 391
field max 653
field sum 12678
field sqrsum 6322834
statistic Mesh.core[23].sink SoP-E2E-Latency-Hist
field count 26
field mean 487.61538461538
field stddev 75.058951190689
field min 391
field max 653
field sum 12678
field sqrsum 6322834
bin	-inf	0
bin	325	0
bin	330	0
bin	335	0
bin	340	0
bin	345	0
bin	350	0
bin	355	0
bin	360	0
bin	365	0
bin	370	0
bin	375	0
bin	380	0
bin	385	0
bin	390	1
bin	395	3
bin	400	0
bin	405	4
bin	410	0
bin	415	0
bin	420	0
bin	425	0
bin	430	0
bin	435	0
bin	440	0
bin	445	0
bin	450	0
bin	455	0
bin	460	3
bin	465	0
bin	470	0
bin	475	0
bin	480	0
bin	485	3
bin	490	1
bin	495	1
bin	500	1
bin	505	1
bin	510	1
bin	515	0
bin	520	1
bin	525	0
bin	530	0
bin	535	0
bin	540	0
bin	545	0
bin	550	0
bin	555	0
bin	560	0
bin	565	0
bin	570	0
bin	575	0
bin	580	3
bin	585	1
bin	590	0
bin	595	1
bin	600	0
bin	605	0
bin	610	0
bin	615	0
bin	620	0
bin	625	0
bin	630	0
bin	635	0
bin	640	0
bin	645	0
bin	650	1
bin	655	0
bin	660	0
bin	665	0
bin	670	0
bin	675	0
bin	680	0
bin	685	0
bin	690	0
bin	695	0
bin	700	0
bin	705	0
bin	710	0
bin	715	0
bin	720	0
statistic Mesh.core[23].sink SoP-network-latency-ns
field count 26
field mean 14.153846153846
field stddev 9.1550742550448
field min 3.9999999999999
field max 36
field sum 368
field sqrsum 7304
statistic Mesh.core[23].sink SoP-queueing-time-ns
field count 26
field mean 471.46153846154
field stddev 74.776055402371
field min 367
field max 647
field sum 12258
field sqrsum 5918962
statistic Mesh.core[23].sink EoP-end-to-end-latency-ns
field count 27
field mean 503.66666666667
field stddev 75.097884841667
field min 409
field max 667
field sum 13599
field sqrsum 6995995
statistic Mesh.core[23].sink EoP-network-latency-ns
field count 27
field mean 8.2222222222222
field stddev 7.3867518277049
field min 3.9999999999999
field max 44
field sum 222
field sqrsum 3244
statistic Mesh.core[23].sink EoP-queueing-time-ns
field count 27
field mean 493.44444444444
field stddev 74.26011111333
field min 397
field max 661
field sum 13323
field sqrsum 6717539
statistic Mesh.core[23].sink packet-network-latency-ns
field count 26
field mean 31.230769230769
field stddev 17.763575523656
field min 18
field max 104
field sum 812
field sqrsum 33248
statistic Mesh.core[23].sink network-latency-ns
field count 211
field mean 10.568720379147
field stddev 8.3300241680614
field min 3.9999999999999
field max 44
field sum 2230
field sqrsum 38140
statistic Mesh.core[23].sink end-to-end-latency-ns
field count 211
field mean 496.31753554502
field stddev 73.98087671562
field min 391
field max 667
field sum 104723
field sqrsum 53125227
statistic Mesh.core[23].sink source-id
field count 544
field mean 13.705882352941
field stddev 9.3879886011373
field min 0
field max 26
field sum 7456
field sqrsum 150048
statistic Mesh.core[23].sink destination-id
field count 544
field mean 23
field stddev 0
field min 23
field max 23
field sum 12512
field sqrsum 287776
statistic Mesh.core[23].sink hop-count
field count 544
field mean 0.32720588235294
field stddev 1.3350063304291
field min 0
field max 12
field sum 178
field sqrsum 1026
statistic Mesh.core[23].sink number-received-packets
field count 1
field mean 26
field stddev nan
field min 26
field max 26
field sum 26
field sqrsum 676
scalar Mesh.core[23].sink Sink-Total-BW-MBps 951.52198421646
statistic Mesh.core[24].source dstId-Hist
field count 59
field mean 12.983050847458
field stddev 6.8920031756545
field min 1
field max 25
field sum 766
field sqrsum 12700
bin	-inf	0
bin	0	0
bin	1	4
bin	2	3
bin	3	0
bin	4	0
bin	5	0
bin	6	4
bin	7	8
bin	8	4
bin	9	0
bin	10	0
bin	11	0
bin	12	4
bin	13	0
bin	14	0
bin	15	0
bin	16	4
bin	17	8
bin	18	8
bin	19	8
bin	20	0
bin	21	0
bin	22	0
bin	23	0
bin	24	0
bin	25	4
bin	26	0
bin	27	0
bin	28	0
bin	29	0
bin	30	0
bin	31	0
statistic Mesh.core[24].source Full_Queue_Indicator
field count 39
field mean 0.97435897435897
field stddev 0.16012815380509
field min 0
field max 1
field sum 38
field sqrsum 38
statistic Mesh.core[24].source number-sent-packets
field count 1
field mean 44
field stddev nan
field min 44
field max 44
field sum 44
field sqrsum 1936
statistic Mesh.core[24].source number-generated-packets
field count 1
field mean 118
field stddev nan
field min 118
field max 118
field sum 118
field sqrsum 13924
statistic Mesh.core[24].source number-queue-packets
field count 1
field mean 59
field stddev nan
field min 59
field max 59
field sum 59
field sqrsum 3481
statistic Mesh.core[24].source source-queue-size-percent
field count 118
field mean 0.90466101694915
field stddev 0.22773619167196
field min 0.0625
field max 1
field sum 106.75
field sqrsum 102.640625
statistic Mesh.core[24].source loss-probability
field count 1
field mean 0.5
field stddev nan
field min 0.5
field max 0.5
field sum 0.5
field sqrsum 0.25
scalar Mesh.core[24].sink flit-per-vc-0 88
scalar Mesh.core[24].sink flit-per-vc-1 97
statistic Mesh.core[24].sink SoP-end-to-end-latency-ns
field count 23
field mean 554.21739130435
field stddev 201.84849325484
field min 355
field max 1043
field sum 12747
field sqrsum 7960951
statistic Mesh.core[24].sink SoP-E2E-Latency-Hist
field count 23
field mean 554.21739130435
field stddev 201.84849325484
field min 355
field max 1043
field sum 12747
field sqrsum 7960951
bin	-inf	0
bin	180	0
bin	200	0
bin	220	0
bin	240	0
bin	260	0
bin	280	0
bin	300	0
bin	320	0
bin	340	1
bin	360	3
bin	380	0
bin	400	2
bin	420	1
bin	440	1
bin	460	0
bin	480	3
bin	500	1
bin	520	3
bin	540	1
bin	560	0
bin	580	1
bin	600	3
bin	620	0
bin	640	0
bin	660	0
bin	680	0
bin	700	0
bin	720	0
bin	740	0
bin	760	0
bin	780	0
bin	800	0
bin	820	0
bin	840	0
bin	860	0
bin	880	0
bin	900	0
bin	920	0
bin	940	0
bin	960	1
bin	980	0
bin	1000	0
bin	1020	1
bin	1040	1
bin	1060	0
bin	1080	0
bin	1100	0
bin	1120	0
bin	1140	0
bin	1160	0
bin	1180	0
bin	1200	0
bin	1220	0
statistic Mesh.core[24].sink SoP-network-latency-ns
field count 23
field mean 32.95652173913
field stddev 28.799429067683
field min 5.9999999999998
field max 102
field sum 758
field sqrsum 43228
statistic Mesh.core[24].sink SoP-queueing-time-ns
field count 23
field mean 519.26086956522
field stddev 185.66764475347
field min 317
field max 969
field sum 11943
field sqrsum 6959927
statistic Mesh.core[24].sink EoP-end-to-end-latency-ns
field count 24
field mean 581.75
field stddev 204.12682545311
field min 369
field max 1071
field sum 13962
field sqrsum 9080752
statistic Mesh.core[24].sink EoP-network-latency-ns
field count 24
field mean 9.75
field stddev 5.542327246234
field min 5.9999999999998
field max 32
field sum 234
field sqrsum 2988
statistic Mesh.core[24].sink EoP-queueing-time-ns
field count 24
field mean 570
field stddev 200.93607030055
field min 359
field max 1055
field sum 13680
field sqrsum 8726232
statistic Mesh.core[24].sink packet-network-latency-ns
field count 23
field mean 52.695652173913
field stddev 35.453471150238
field min 20
field max 134
field sum 1212
field sqrsum 91520
statistic Mesh.core[24].sink network-latency-ns
field count 185
field mean 17.848648648649
field stddev 19.676150063366
field min 5.9999999999998
field max 102
field sum 3302
field sqrsum 130172
statistic Mesh.core[24].sink end-to-end-latency-ns
field count 185
field mean 565.87567567568
field stddev 198.89879090803
field min 355
field max 1071
field sum 104687
field sqrsum 66519001
statistic Mesh.core[24].sink source-id
field count 408
field mean 12.509803921569
field stddev 7.5118188259889
field min 1
field max 23
field sum 5104
field sqrsum 86816
statistic Mesh.core[24].sink destination-id
field count 408
field mean 24
field stddev 0
field min 24
field max 24
field sum 9792
field sqrsum 235008
statistic Mesh.core[24].sink hop-count
field count 408
field mean 0.41911764705882
field stddev 1.6745903326468
field min 0
field max 12
field sum 171
field sqrsum 1213
statistic Mesh.core[24].sink number-received-packets
field count 1
field mean 23
field stddev nan
field min 23
field max 23
field sum 23
field sqrsum 529
scalar Mesh.core[24].sink Sink-Total-BW-MBps 834.27282976325
statistic Mesh.core[25].source dstId-Hist
field count 70
field mean 10.742857142857
field stddev 8.0373867594713
field min 1
field max 26
field sum 752
field sqrsum 12536
bin	-inf	0
bin	0	0
bin	1	4
bin	2	8
bin	3	4
bin	4	6
bin	5	8
bin	6	4
bin	7	4
bin	8	0
bin	9	0
bin	10	0
bin	11	0
bin	12	0
bin	13	0
bin	14	0
bin	15	8
bin	16	4
bin	17	0
bin	18	4
bin	19	8
bin	20	0
bin	21	0
bin	22	0
bin	23	4
bin	24	0
bin	25	0
bin	26	4
bin	27	0
bin	28	0
bin	29	0
bin	30	0
bin	31	0
bin	32	0
bin	33	0
statistic Mesh.core[25].source Full_Queue_Indicator
field count 31
field mean 0.96774193548387
field stddev 0.17960530202677
field min 0
field max 1
field sum 30
field sqrsum 30
statistic Mesh.core[25].source number-sent-packets
field count 1
field mean 54
field stddev nan
field min 54
field max 54
field sum 54
field sqrsum 2916
statistic Mesh.core[25].source number-generated-packets
field count 1
field mean 118
field stddev nan
field min 118
field max 118
field sum 118
field sqrsum 13924
statistic Mesh.core[25].source number-queue-packets
field count 1
field mean 70
field stddev nan
field min 70
field max 70
field sum 70
field sqrsum 4900
statistic Mesh.core[25].source source-queue-size-percent
field count 118
field mean 0.87341101694915
field stddev 0.27583665759369
field min 0.0625
field max 1
field sum 103.0625
field sqrsum 98.91796875
statistic Mesh.core[25].source loss-probability
field count 1
field mean 0.40677966101695
field stddev nan
field min 0.40677966101695
field max 0.40677966101695
field sum 0.40677966101695
field sqrsum 0.16546969261706
scalar Mesh.core[25].sink flit-per-vc-0 64
scalar Mesh.core[25].sink flit-per-vc-1 64
statistic Mesh.core[25].sink SoP-end-to-end-latency-ns
field count 16
field mean 576.625
field stddev 140.45111842441
field min 407
field max 811
field sum 9226
field sqrsum 5615840
statistic Mesh.core[25].sink SoP-E2E-Latency-Hist
field count 16
field mean 576.625
field stddev 140.45111842441
field min 407
field max 811
field sum 9226
field sqrsum 5615840
bin	-inf	0
bin	300	0
bin	310	0
bin	320	0
bin	330	0
bin	340	0
bin	350	0
bin	360	0
bin	370	0
bin	380	0
bin	390	0
bin	400	3
bin	410	1
bin	420	0
bin	430	0
bin	440	0
bin	450	0
bin	460	0
bin	470	2
bin	480	0
bin	490	1
bin	500	0
bin	510	1
bin	520	0
bin	530	0
bin	540	0
bin	550	0
bin	560	0
bin	570	0
bin	580	0
bin	590	0
bin	600	0
bin	610	0
bin	620	0
bin	630	1
bin	640	1
bin	650	0
bin	660	2
bin	670	0
bin	680	0
bin	690	1
bin	700	0
bin	710	0
bin	720	1
bin	730	0
bin	740	0
bin	750	0
bin	760	0
bin	770	1
bin	780	0
bin	790	0
bin	800	0
bin	810	1
bin	820	0
bin	830	0
bin	840	0
bin	850	0
bin	860	0
bin	870	0
bin	880	0
bin	890	0
bin	900	0
bin	910	0
bin	920	0
statistic Mesh.core[25].sink SoP-network-latency-ns
field count 16
field mean 19.125
field stddev 16.394612936368
field min 3.9999999999999
field max 56
field sum 306
field sqrsum 9884
statistic Mesh.core[25].sink SoP-queueing-time-ns
field count 16
field mean 555.5
field stddev 130.56084150056
field min 397
field max 763
field sum 8888
field sqrsum 5192976
statistic Mesh.core[25].sink EoP-end-to-end-latency-ns
field count 16
field mean 592.375
field stddev 142.19183052013
field min 421
field max 835
field sum 9478
field sqrsum 5917808
statistic Mesh.core[25].sink EoP-network-latency-ns
field count 16
field mean 7
field stddev 2.3094010767585
field min 3.9999999999999
field max 10
field sum 112
field sqrsum 864
statistic Mesh.core[25].sink EoP-queueing-time-ns
field count 16
field mean 583.375
field stddev 141.17264843682
field min 411
field max 823
field sum 9334
field sqrsum 5744168
statistic Mesh.core[25].sink packet-network-latency-ns
field count 16
field mean 34.875
field stddev 17.678140927899
field min 18
field max 70
field sum 558
field sqrsum 24148
statistic Mesh.core[25].sink network-latency-ns
field count 128
field mean 9.546875
field stddev 8.1180845797574
field min 3.9999999999999
field max 56
field sum 1222
field sqrsum 20036
statistic Mesh.core[25].sink end-to-end-latency-ns
field count 128
field mean 585
field stddev 137.82929073977
field min 407
field max 835
field sum 74880
field sqrsum 46217408
statistic Mesh.core[25].sink source-id
field count 288
field mean 12.222222222222
field stddev 7.507900084953
field min 3
field max 24
field sum 3520
field sqrsum 59200
statistic Mesh.core[25].sink destination-id
field count 288
field mean 25
field stddev 0
field min 25
field max 25
field sum 7200
field sqrsum 180000
statistic Mesh.core[25].sink hop-count
field count 288
field mean 0.36458333333333
field stddev 1.5011247235124
field min 0
field max 11
field sum 105
field sqrsum 685
statistic Mesh.core[25].sink number-received-packets
field count 1
field mean 16
field stddev nan
field min 16
field max 16
field sum 16
field sqrsum 256
scalar Mesh.core[25].sink Sink-Total-BW-MBps 577.2266065389
statistic Mesh.core[26].source dstId-Hist
field count 70
field mean 16.457142857143
field stddev 6.6869670217753
field min 0
field max 23
field sum 1152
field sqrsum 22044
bin	-inf	0
bin	0	4
bin	1	0
bin	2	0
bin	3	0
bin	4	0
bin	5	0
bin	6	0
bin	7	4
bin	8	0
bin	9	4
bin	10	4
bin	11	0
bin	12	4
bin	13	4
bin	14	0
bin	15	0
bin	16	0
bin	17	12
bin	18	4
bin	19	4
bin	20	0
bin	21	0
bin	22	2
bin	23	24
bin	24	0
bin	25	0
bin	26	0
bin	27	0
bin	28	0
bin	29	0
statistic Mesh.core[26].source Full_Queue_Indicator
field count 24
field mean 0.95833333333333
field stddev 0.20412414523193
field min 0
field max 1
field sum 23
field sqrsum 23
statistic Mesh.core[26].source number-sent-packets
field count 1
field mean 54
field stddev nan
field min 54
field max 54
field sum 54
field sqrsum 2916
statistic Mesh.core[26].source number-generated-packets
field count 1
field mean 118
field stddev nan
field min 118
field max 118
field sum 118
field sqrsum 13924
statistic Mesh.core[26].source number-queue-packets
field count 1
field mean 70
field stddev nan
field min 70
field max 70
field sum 70
field sqrsum 4900
statistic Mesh.core[26].source source-queue-size-percent
field count 118
field mean 0.90360169491525
field stddev 0.23351699328089
field min 0.0625
field max 1
field sum 106.625
field sqrsum 102.7265625
statistic Mesh.core[26].source loss-probability
field count 1
field mean 0.40677966101695
field stddev nan
field min 0.40677966101695
field max 0.40677966101695
field sum 0.40677966101695
field sqrsum 0.16546969261706
scalar Mesh.core[26].sink flit-per-vc-0 104
scalar Mesh.core[26].sink flit-per-vc-1 134
statistic Mesh.core[26].sink SoP-end-to-end-latency-ns
field count 29
field mean 713.48275862069
field stddev 207.03599077898
field min 341
field max 1181
field sum 20691
field sqrsum 15962861
statistic Mesh.core[26].sink SoP-E2E-Latency-Hist
field count 29
field mean 713.48275862069
field stddev 207.03599077898
field min 341
field max 1181
field sum 20691
field sqrsum 15962861
bin	-inf	0
bin	120	0
bin	140	0
bin	160	0
bin	180	0
bin	200	0
bin	220	0
bin	240	0
bin	260	0
bin	280	0
bin	300	0
bin	320	0
bin	340	1
bin	360	0
bin	380	1
bin	400	0
bin	420	0
bin	440	2
bin	460	0
bin	480	1
bin	500	1
bin	520	1
bin	540	0
bin	560	1
bin	580	0
bin	600	1
bin	620	1
bin	640	1
bin	660	2
bin	680	0
bin	700	1
bin	720	3
bin	740	0
bin	760	1
bin	780	1
bin	800	2
bin	820	3
bin	840	0
bin	860	1
bin	880	0
bin	900	0
bin	920	0
bin	940	1
bin	960	0
bin	980	1
bin	1000	0
bin	1020	0
bin	1040	0
bin	1060	0
bin	1080	0
bin	1100	0
bin	1120	0
bin	1140	1
bin	1160	0
bin	1180	1
bin	1200	0
bin	1220	0
bin	1240	0
bin	1260	0
bin	1280	0
bin	1300	0
bin	1320	0
bin	1340	0
bin	1360	0
bin	1380	0
bin	1400	0
statistic Mesh.core[26].sink SoP-network-latency-ns
field count 29
field mean 75.448275862069
field stddev 41.272254781855
field min 18
field max 160
field sum 2188
field sqrsum 212776
statistic Mesh.core[26].sink SoP-queueing-time-ns
field count 29
field mean 636.03448275862
field stddev 192.55249428192
field min 289
field max 1137
field sum 18445
field sqrsum 12769797
statistic Mesh.core[26].sink EoP-end-to-end-latency-ns
field count 30
field mean 726.4
field stddev 207.82628687739
field min 355
field max 1195
field sum 21792
field sqrsum 17082270
statistic Mesh.core[26].sink EoP-network-latency-ns
field count 30
field mean 10.466666666667
field stddev 6.2518043372505
field min 5.9999999999998
field max 36
field sum 314
field sqrsum 4420
statistic Mesh.core[26].sink EoP-queueing-time-ns
field count 30
field mean 713.93333333333
field stddev 205.23811794467
field min 347
field max 1183
field sum 21418
field sqrsum 16512582
statistic Mesh.core[26].sink packet-network-latency-ns
field count 29
field mean 94.551724137931
field stddev 45.393191911576
field min 32
field max 200
field sum 2742
field sqrsum 316956
statistic Mesh.core[26].sink network-latency-ns
field count 238
field mean 41.966386554622
field stddev 41.452109070367
field min 5.9999999999998
field max 176
field sum 9988
field sqrsum 826392
statistic Mesh.core[26].sink end-to-end-latency-ns
field count 238
field mean 719.08403361345
field stddev 204.11891875312
field min 341
field max 1195
field sum 171142
field sqrsum 132939974
statistic Mesh.core[26].sink source-id
field count 416
field mean 13.846153846154
field stddev 7.6031309096507
field min 0
field max 25
field sum 5760
field sqrsum 103744
statistic Mesh.core[26].sink destination-id
field count 416
field mean 26
field stddev 0
field min 26
field max 26
field sum 10816
field sqrsum 281216
statistic Mesh.core[26].sink hop-count
field count 416
field mean 0.34855769230769
field stddev 1.6135414426116
field min 0
field max 15
field sum 145
field sqrsum 1131
statistic Mesh.core[26].sink number-received-packets
field count 1
field mean 29
field stddev nan
field min 29
field max 29
field sum 29
field sqrsum 841
scalar Mesh.core[26].sink Sink-Total-BW-MBps 1073.2807215333

