version 2
run General-0-20200919-20:50:43-12388
attr configname General
attr datetime 20200919-20:50:43
attr experiment General
attr inifile omnetpp.ini
attr iterationvars ""
attr iterationvarsf ""
attr measurement ""
attr network Mesh
attr processid 12388
attr repetition 0
attr replication #0
attr resultdir results
attr runnumber 0
attr seedset 0
param **.routerType "\"sampleproject.routers.hier.idealRouter\""
param **.coreType "\"sampleproject.cores.NI\""
param **.sourceType "\"sampleproject.cores.sources.PktFifoSrc\""
param **.sinkType "\"sampleproject.cores.sinks.InfiniteBWMultiVCSink\""
param **.portType "\"sampleproject.routers.hier.Port\""
param **.inPortType "\"sampleproject.routers.hier.inPort.InPortAsync\""
param **.OPCalcType "\"sampleproject.routers.hier.opCalc.static.XYOPCalc\""
param **.VCCalcType "\"sampleproject.routers.hier.vcCalc.free.FLUVCCalc\""
param **.schedType "\"sampleproject.routers.hier.sched.wormhole.SchedAsync\""
param **.numVCs 2
param **.flitSize 4B
param **.rows 3
param **.columns 3
param **.layers 3
param **.statStartTime 1us
param **.source.pktVC 0
param **.source.msgLen 4
param **.source.pktLen 8
param **.source.isSynchronous false
param **.source.isTrace false
param **.source.fileName "\"\""
param **.source.flitArrivalDelay 2ns
param **.source.maxQueuedPkts 16
param **.source.dstId "(id + intuniform(1, 26)) % 27"
param **.inPort.collectPerHopWait false
param **.inPort.flitsPerVC 1
param **.sched.arbitration_type 0

statistic Mesh.router[0].port[0].sched number-used-VCs
field count 0
field mean nan
field stddev nan
field min nan
field max nan
field sum 0
field sqrsum 0
statistic Mesh.router[0].port[0].sched link-utilization
field count 1
field mean -1
field stddev nan
field min -1
field max -1
field sum -1
field sqrsum 1
statistic Mesh.router[0].port[1].sched number-used-VCs
field count 0
field mean nan
field stddev nan
field min nan
field max nan
field sum 0
field sqrsum 0
statistic Mesh.router[0].port[1].sched link-utilization
field count 1
field mean -1
field stddev nan
field min -1
field max -1
field sum -1
field sqrsum 1
statistic Mesh.router[0].port[2].sched number-used-VCs
field count 17
field mean 1
field stddev 0
field min 1
field max 1
field sum 17
field sqrsum 17
statistic Mesh.router[0].port[2].sched link-utilization
field count 1
field mean -1
field stddev nan
field min -1
field max -1
field sum -1
field sqrsum 1
statistic Mesh.router[0].port[3].sched number-used-VCs
field count 32
field mean 1
field stddev 0
field min 1
field max 1
field sum 32
field sqrsum 32
statistic Mesh.router[0].port[3].sched link-utilization
field count 1
field mean -1
field stddev nan
field min -1
field max -1
field sum -1
field sqrsum 1
statistic Mesh.router[0].port[4].sched number-used-VCs
field count 32
field mean 1
field stddev 0
field min 1
field max 1
field sum 32
field sqrsum 32
statistic Mesh.router[0].port[4].sched link-utilization
field count 1
field mean -1
field stddev nan
field min -1
field max -1
field sum -1
field sqrsum 1
statistic Mesh.router[0].port[5].sched number-used-VCs
field count 0
field mean nan
field stddev nan
field min nan
field max nan
field sum 0
field sqrsum 0
statistic Mesh.router[0].port[5].sched link-utilization
field count 1
field mean -1
field stddev nan
field min -1
field max -1
field sum -1
field sqrsum 1
statistic Mesh.router[0].port[6].sched number-used-VCs
field count 64
field mean 1
field stddev 0
field min 1
field max 1
field sum 64
field sqrsum 64
statistic Mesh.router[0].port[6].sched link-utilization
field count 1
field mean -1
field stddev nan
field min -1
field max -1
field sum -1
field sqrsum 1
statistic Mesh.router[1].port[0].sched number-used-VCs
field count 0
field mean nan
field stddev nan
field min nan
field max nan
field sum 0
field sqrsum 0
statistic Mesh.router[1].port[0].sched link-utilization
field count 1
field mean -1
field stddev nan
field min -1
field max -1
field sum -1
field sqrsum 1
statistic Mesh.router[1].port[1].sched number-used-VCs
field count 32
field mean 1
field stddev 0
field min 1
field max 1
field sum 32
field sqrsum 32
statistic Mesh.router[1].port[1].sched link-utilization
field count 1
field mean -1
field stddev nan
field min -1
field max -1
field sum -1
field sqrsum 1
statistic Mesh.router[1].port[2].sched number-used-VCs
field count 138
field mean 1.3913043478261
field stddev 0.48982020548726
field min 1
field max 2
field sum 192
field sqrsum 300
statistic Mesh.router[1].port[2].sched link-utilization
field count 1
field mean -1
field stddev nan
field min -1
field max -1
field sum -1
field sqrsum 1
statistic Mesh.router[1].port[3].sched number-used-VCs
field count 64
field mean 1
field stddev 0
field min 1
field max 1
field sum 64
field sqrsum 64
statistic Mesh.router[1].port[3].sched link-utilization
field count 1
field mean -1
field stddev nan
field min -1
field max -1
field sum -1
field sqrsum 1
statistic Mesh.router[1].port[4].sched number-used-VCs
field count 117
field mean 1.3760683760684
field stddev 0.48648095484031
field min 1
field max 2
field sum 161
field sqrsum 249
statistic Mesh.router[1].port[4].sched link-utilization
field count 1
field mean -1
field stddev nan
field min -1
field max -1
field sum -1
field sqrsum 1
statistic Mesh.router[1].port[5].sched number-used-VCs
field count 0
field mean nan
field stddev nan
field min nan
field max nan
field sum 0
field sqrsum 0
statistic Mesh.router[1].port[5].sched link-utilization
field count 1
field mean -1
field stddev nan
field min -1
field max -1
field sum -1
field sqrsum 1
statistic Mesh.router[1].port[6].sched number-used-VCs
field count 32
field mean 1
field stddev 0
field min 1
field max 1
field sum 32
field sqrsum 32
statistic Mesh.router[1].port[6].sched link-utilization
field count 1
field mean -1
field stddev nan
field min -1
field max -1
field sum -1
field sqrsum 1
statistic Mesh.router[2].port[0].sched number-used-VCs
field count 0
field mean nan
field stddev nan
field min nan
field max nan
field sum 0
field sqrsum 0
statistic Mesh.router[2].port[0].sched link-utilization
field count 1
field mean -1
field stddev nan
field min -1
field max -1
field sum -1
field sqrsum 1
statistic Mesh.router[2].port[1].sched number-used-VCs
field count 32
field mean 1
field stddev 0
field min 1
field max 1
field sum 32
field sqrsum 32
statistic Mesh.router[2].port[1].sched link-utilization
field count 1
field mean -1
field stddev nan
field min -1
field max -1
field sum -1
field sqrsum 1
statistic Mesh.router[2].port[2].sched number-used-VCs
field count 59
field mean 1
field stddev 0
field min 1
field max 1
field sum 59
field sqrsum 59
statistic Mesh.router[2].port[2].sched link-utilization
field count 1
field mean -1
field stddev nan
field min -1
field max -1
field sum -1
field sqrsum 1
statistic Mesh.router[2].port[3].sched number-used-VCs
field count 0
field mean nan
field stddev nan
field min nan
field max nan
field sum 0
field sqrsum 0
statistic Mesh.router[2].port[3].sched link-utilization
field count 1
field mean -1
field stddev nan
field min -1
field max -1
field sum -1
field sqrsum 1
statistic Mesh.router[2].port[4].sched number-used-VCs
field count 90
field mean 1
field stddev 0
field min 1
field max 1
field sum 90
field sqrsum 90
statistic Mesh.router[2].port[4].sched link-utilization
field count 1
field mean -1
field stddev nan
field min -1
field max -1
field sum -1
field sqrsum 1
statistic Mesh.router[2].port[5].sched number-used-VCs
field count 0
field mean nan
field stddev nan
field min nan
field max nan
field sum 0
field sqrsum 0
statistic Mesh.router[2].port[5].sched link-utilization
field count 1
field mean -1
field stddev nan
field min -1
field max -1
field sum -1
field sqrsum 1
statistic Mesh.router[2].port[6].sched number-used-VCs
field count 32
field mean 1
field stddev 0
field min 1
field max 1
field sum 32
field sqrsum 32
statistic Mesh.router[2].port[6].sched link-utilization
field count 1
field mean -1
field stddev nan
field min -1
field max -1
field sum -1
field sqrsum 1
statistic Mesh.router[3].port[0].sched number-used-VCs
field count 32
field mean 1
field stddev 0
field min 1
field max 1
field sum 32
field sqrsum 32
statistic Mesh.router[3].port[0].sched link-utilization
field count 1
field mean -1
field stddev nan
field min -1
field max -1
field sum -1
field sqrsum 1
statistic Mesh.router[3].port[1].sched number-used-VCs
field count 0
field mean nan
field stddev nan
field min nan
field max nan
field sum 0
field sqrsum 0
statistic Mesh.router[3].port[1].sched link-utilization
field count 1
field mean -1
field stddev nan
field min -1
field max -1
field sum -1
field sqrsum 1
statistic Mesh.router[3].port[2].sched number-used-VCs
field count 98
field mean 1.0816326530612
field stddev 0.27521198531483
field min 1
field max 2
field sum 106
field sqrsum 122
statistic Mesh.router[3].port[2].sched link-utilization
field count 1
field mean -1
field stddev nan
field min -1
field max -1
field sum -1
field sqrsum 1
statistic Mesh.router[3].port[3].sched number-used-VCs
field count 100
field mean 1.29
field stddev 0.45604802157207
field min 1
field max 2
field sum 129
field sqrsum 187
statistic Mesh.router[3].port[3].sched link-utilization
field count 1
field mean -1
field stddev nan
field min -1
field max -1
field sum -1
field sqrsum 1
statistic Mesh.router[3].port[4].sched number-used-VCs
field count 162
field mean 1.0987654320988
field stddev 0.29927192278358
field min 1
field max 2
field sum 178
field sqrsum 210
statistic Mesh.router[3].port[4].sched link-utilization
field count 1
field mean -1
field stddev nan
field min -1
field max -1
field sum -1
field sqrsum 1
statistic Mesh.router[3].port[5].sched number-used-VCs
field count 0
field mean nan
field stddev nan
field min nan
field max nan
field sum 0
field sqrsum 0
statistic Mesh.router[3].port[5].sched link-utilization
field count 1
field mean -1
field stddev nan
field min -1
field max -1
field sum -1
field sqrsum 1
statistic Mesh.router[3].port[6].sched number-used-VCs
field count 163
field mean 1.441717791411
field stddev 0.49812189877533
field min 1
field max 2
field sum 235
field sqrsum 379
statistic Mesh.router[3].port[6].sched link-utilization
field count 1
field mean -1
field stddev nan
field min -1
field max -1
field sum -1
field sqrsum 1
statistic Mesh.router[4].port[0].sched number-used-VCs
field count 104
field mean 1.4230769230769
field stddev 0.4964399022537
field min 1
field max 2
field sum 148
field sqrsum 236
statistic Mesh.router[4].port[0].sched link-utilization
field count 1
field mean -1
field stddev nan
field min -1
field max -1
field sum -1
field sqrsum 1
statistic Mesh.router[4].port[1].sched number-used-VCs
field count 138
field mean 1.3985507246377
field stddev 0.4913834941104
field min 1
field max 2
field sum 193
field sqrsum 303
statistic Mesh.router[4].port[1].sched link-utilization
field count 1
field mean -1
field stddev nan
field min -1
field max -1
field sum -1
field sqrsum 1
statistic Mesh.router[4].port[2].sched number-used-VCs
field count 137
field mean 1.2773722627737
field stddev 0.44934473545799
field min 1
field max 2
field sum 175
field sqrsum 251
statistic Mesh.router[4].port[2].sched link-utilization
field count 1
field mean -1
field stddev nan
field min -1
field max -1
field sum -1
field sqrsum 1
statistic Mesh.router[4].port[3].sched number-used-VCs
field count 68
field mean 1.9117647058824
field stddev 0.28574563981981
field min 1
field max 2
field sum 130
field sqrsum 254
statistic Mesh.router[4].port[3].sched link-utilization
field count 1
field mean -1
field stddev nan
field min -1
field max -1
field sum -1
field sqrsum 1
statistic Mesh.router[4].port[4].sched number-used-VCs
field count 233
field mean 1.206008583691
field stddev 0.40530739708633
field min 1
field max 2
field sum 281
field sqrsum 377
statistic Mesh.router[4].port[4].sched link-utilization
field count 1
field mean -1
field stddev nan
field min -1
field max -1
field sum -1
field sqrsum 1
statistic Mesh.router[4].port[5].sched number-used-VCs
field count 0
field mean nan
field stddev nan
field min nan
field max nan
field sum 0
field sqrsum 0
statistic Mesh.router[4].port[5].sched link-utilization
field count 1
field mean -1
field stddev nan
field min -1
field max -1
field sum -1
field sqrsum 1
statistic Mesh.router[4].port[6].sched number-used-VCs
field count 32
field mean 1
field stddev 0
field min 1
field max 1
field sum 32
field sqrsum 32
statistic Mesh.router[4].port[6].sched link-utilization
field count 1
field mean -1
field stddev nan
field min -1
field max -1
field sum -1
field sqrsum 1
statistic Mesh.router[5].port[0].sched number-used-VCs
field count 32
field mean 1
field stddev 0
field min 1
field max 1
field sum 32
field sqrsum 32
statistic Mesh.router[5].port[0].sched link-utilization
field count 1
field mean -1
field stddev nan
field min -1
field max -1
field sum -1
field sqrsum 1
statistic Mesh.router[5].port[1].sched number-used-VCs
field count 162
field mean 1.4012345679012
field stddev 0.49166817754463
field min 1
field max 2
field sum 227
field sqrsum 357
statistic Mesh.router[5].port[1].sched link-utilization
field count 1
field mean -1
field stddev nan
field min -1
field max -1
field sum -1
field sqrsum 1
statistic Mesh.router[5].port[2].sched number-used-VCs
field count 6
field mean 1
field stddev 0
field min 1
field max 1
field sum 6
field sqrsum 6
statistic Mesh.router[5].port[2].sched link-utilization
field count 1
field mean -1
field stddev nan
field min -1
field max -1
field sum -1
field sqrsum 1
statistic Mesh.router[5].port[3].sched number-used-VCs
field count 0
field mean nan
field stddev nan
field min nan
field max nan
field sum 0
field sqrsum 0
statistic Mesh.router[5].port[3].sched link-utilization
field count 1
field mean -1
field stddev nan
field min -1
field max -1
field sum -1
field sqrsum 1
statistic Mesh.router[5].port[4].sched number-used-VCs
field count 123
field mean 1
field stddev 0
field min 1
field max 1
field sum 123
field sqrsum 123
statistic Mesh.router[5].port[4].sched link-utilization
field count 1
field mean -1
field stddev nan
field min -1
field max -1
field sum -1
field sqrsum 1
statistic Mesh.router[5].port[5].sched number-used-VCs
field count 0
field mean nan
field stddev nan
field min nan
field max nan
field sum 0
field sqrsum 0
statistic Mesh.router[5].port[5].sched link-utilization
field count 1
field mean -1
field stddev nan
field min -1
field max -1
field sum -1
field sqrsum 1
statistic Mesh.router[5].port[6].sched number-used-VCs
field count 132
field mean 1.7575757575758
field stddev 0.43018214003639
field min 1
field max 2
field sum 232
field sqrsum 432
statistic Mesh.router[5].port[6].sched link-utilization
field count 1
field mean -1
field stddev nan
field min -1
field max -1
field sum -1
field sqrsum 1
statistic Mesh.router[6].port[0].sched number-used-VCs
field count 149
field mean 1.3892617449664
field stddev 0.48922731957226
field min 1
field max 2
field sum 207
field sqrsum 323
statistic Mesh.router[6].port[0].sched link-utilization
field count 1
field mean -1
field stddev nan
field min -1
field max -1
field sum -1
field sqrsum 1
statistic Mesh.router[6].port[1].sched number-used-VCs
field count 0
field mean nan
field stddev nan
field min nan
field max nan
field sum 0
field sqrsum 0
statistic Mesh.router[6].port[1].sched link-utilization
field count 1
field mean -1
field stddev nan
field min -1
field max -1
field sum -1
field sqrsum 1
statistic Mesh.router[6].port[2].sched number-used-VCs
field count 0
field mean nan
field stddev nan
field min nan
field max nan
field sum 0
field sqrsum 0
statistic Mesh.router[6].port[2].sched link-utilization
field count 1
field mean -1
field stddev nan
field min -1
field max -1
field sum -1
field sqrsum 1
statistic Mesh.router[6].port[3].sched number-used-VCs
field count 87
field mean 1
field stddev 0
field min 1
field max 1
field sum 87
field sqrsum 87
statistic Mesh.router[6].port[3].sched link-utilization
field count 1
field mean -1
field stddev nan
field min -1
field max -1
field sum -1
field sqrsum 1
statistic Mesh.router[6].port[4].sched number-used-VCs
field count 96
field mean 1.0833333333333
field stddev 0.2778362511555
field min 1
field max 2
field sum 104
field sqrsum 120
statistic Mesh.router[6].port[4].sched link-utilization
field count 1
field mean -1
field stddev nan
field min -1
field max -1
field sum -1
field sqrsum 1
statistic Mesh.router[6].port[5].sched number-used-VCs
field count 0
field mean nan
field stddev nan
field min nan
field max nan
field sum 0
field sqrsum 0
statistic Mesh.router[6].port[5].sched link-utilization
field count 1
field mean -1
field stddev nan
field min -1
field max -1
field sum -1
field sqrsum 1
statistic Mesh.router[6].port[6].sched number-used-VCs
field count 40
field mean 1
field stddev 0
field min 1
field max 1
field sum 40
field sqrsum 40
statistic Mesh.router[6].port[6].sched link-utilization
field count 1
field mean -1
field stddev nan
field min -1
field max -1
field sum -1
field sqrsum 1
statistic Mesh.router[7].port[0].sched number-used-VCs
field count 69
field mean 1.768115942029
field stddev 0.42512723134416
field min 1
field max 2
field sum 122
field sqrsum 228
statistic Mesh.router[7].port[0].sched link-utilization
field count 1
field mean -1
field stddev nan
field min -1
field max -1
field sum -1
field sqrsum 1
statistic Mesh.router[7].port[1].sched number-used-VCs
field count 128
field mean 1.4140625
field stddev 0.49449479110017
field min 1
field max 2
field sum 181
field sqrsum 287
statistic Mesh.router[7].port[1].sched link-utilization
field count 1
field mean -1
field stddev nan
field min -1
field max -1
field sum -1
field sqrsum 1
statistic Mesh.router[7].port[2].sched number-used-VCs
field count 0
field mean nan
field stddev nan
field min nan
field max nan
field sum 0
field sqrsum 0
statistic Mesh.router[7].port[2].sched link-utilization
field count 1
field mean -1
field stddev nan
field min -1
field max -1
field sum -1
field sqrsum 1
statistic Mesh.router[7].port[3].sched number-used-VCs
field count 32
field mean 1
field stddev 0
field min 1
field max 1
field sum 32
field sqrsum 32
statistic Mesh.router[7].port[3].sched link-utilization
field count 1
field mean -1
field stddev nan
field min -1
field max -1
field sum -1
field sqrsum 1
statistic Mesh.router[7].port[4].sched number-used-VCs
field count 176
field mean 1.3920454545455
field stddev 0.48959962439507
field min 1
field max 2
field sum 245
field sqrsum 383
statistic Mesh.router[7].port[4].sched link-utilization
field count 1
field mean -1
field stddev nan
field min -1
field max -1
field sum -1
field sqrsum 1
statistic Mesh.router[7].port[5].sched number-used-VCs
field count 0
field mean nan
field stddev nan
field min nan
field max nan
field sum 0
field sqrsum 0
statistic Mesh.router[7].port[5].sched link-utilization
field count 1
field mean -1
field stddev nan
field min -1
field max -1
field sum -1
field sqrsum 1
statistic Mesh.router[7].port[6].sched number-used-VCs
field count 88
field mean 1
field stddev 0
field min 1
field max 1
field sum 88
field sqrsum 88
statistic Mesh.router[7].port[6].sched link-utilization
field count 1
field mean -1
field stddev nan
field min -1
field max -1
field sum -1
field sqrsum 1
statistic Mesh.router[8].port[0].sched number-used-VCs
field count 32
field mean 1
field stddev 0
field min 1
field max 1
field sum 32
field sqrsum 32
statistic Mesh.router[8].port[0].sched link-utilization
field count 1
field mean -1
field stddev nan
field min -1
field max -1
field sum -1
field sqrsum 1
statistic Mesh.router[8].port[1].sched number-used-VCs
field count 154
field mean 1.5064935064935
field stddev 0.50158902072234
field min 1
field max 2
field sum 232
field sqrsum 388
statistic Mesh.router[8].port[1].sched link-utilization
field count 1
field mean -1
field stddev nan
field min -1
field max -1
field sum -1
field sqrsum 1
statistic Mesh.router[8].port[2].sched number-used-VCs
field count 0
field mean nan
field stddev nan
field min nan
field max nan
field sum 0
field sqrsum 0
statistic Mesh.router[8].port[2].sched link-utilization
field count 1
field mean -1
field stddev nan
field min -1
field max -1
field sum -1
field sqrsum 1
statistic Mesh.router[8].port[3].sched number-used-VCs
field count 0
field mean nan
field stddev nan
field min nan
field max nan
field sum 0
field sqrsum 0
statistic Mesh.router[8].port[3].sched link-utilization
field count 1
field mean -1
field stddev nan
field min -1
field max -1
field sum -1
field sqrsum 1
statistic Mesh.router[8].port[4].sched number-used-VCs
field count 73
field mean 1.3287671232877
field stddev 0.47301616487964
field min 1
field max 2
field sum 97
field sqrsum 145
statistic Mesh.router[8].port[4].sched link-utilization
field count 1
field mean -1
field stddev nan
field min -1
field max -1
field sum -1
field sqrsum 1
statistic Mesh.router[8].port[5].sched number-used-VCs
field count 0
field mean nan
field stddev nan
field min nan
field max nan
field sum 0
field sqrsum 0
statistic Mesh.router[8].port[5].sched link-utilization
field count 1
field mean -1
field stddev nan
field min -1
field max -1
field sum -1
field sqrsum 1
statistic Mesh.router[8].port[6].sched number-used-VCs
field count 0
field mean nan
field stddev nan
field min nan
field max nan
field sum 0
field sqrsum 0
statistic Mesh.router[8].port[6].sched link-utilization
field count 1
field mean -1
field stddev nan
field min -1
field max -1
field sum -1
field sqrsum 1
statistic Mesh.router[9].port[0].sched number-used-VCs
field count 0
field mean nan
field stddev nan
field min nan
field max nan
field sum 0
field sqrsum 0
statistic Mesh.router[9].port[0].sched link-utilization
field count 1
field mean -1
field stddev nan
field min -1
field max -1
field sum -1
field sqrsum 1
statistic Mesh.router[9].port[1].sched number-used-VCs
field count 0
field mean nan
field stddev nan
field min nan
field max nan
field sum 0
field sqrsum 0
statistic Mesh.router[9].port[1].sched link-utilization
field count 1
field mean -1
field stddev nan
field min -1
field max -1
field sum -1
field sqrsum 1
statistic Mesh.router[9].port[2].sched number-used-VCs
field count 32
field mean 1
field stddev 0
field min 1
field max 1
field sum 32
field sqrsum 32
statistic Mesh.router[9].port[2].sched link-utilization
field count 1
field mean -1
field stddev nan
field min -1
field max -1
field sum -1
field sqrsum 1
statistic Mesh.router[9].port[3].sched number-used-VCs
field count 64
field mean 1
field stddev 0
field min 1
field max 1
field sum 64
field sqrsum 64
statistic Mesh.router[9].port[3].sched link-utilization
field count 1
field mean -1
field stddev nan
field min -1
field max -1
field sum -1
field sqrsum 1
statistic Mesh.router[9].port[4].sched number-used-VCs
field count 96
field mean 1
field stddev 0
field min 1
field max 1
field sum 96
field sqrsum 96
statistic Mesh.router[9].port[4].sched link-utilization
field count 1
field mean -1
field stddev nan
field min -1
field max -1
field sum -1
field sqrsum 1
statistic Mesh.router[9].port[5].sched number-used-VCs
field count 0
field mean nan
field stddev nan
field min nan
field max nan
field sum 0
field sqrsum 0
statistic Mesh.router[9].port[5].sched link-utilization
field count 1
field mean -1
field stddev nan
field min -1
field max -1
field sum -1
field sqrsum 1
statistic Mesh.router[9].port[6].sched number-used-VCs
field count 73
field mean 1
field stddev 0
field min 1
field max 1
field sum 73
field sqrsum 73
statistic Mesh.router[9].port[6].sched link-utilization
field count 1
field mean -1
field stddev nan
field min -1
field max -1
field sum -1
field sqrsum 1
statistic Mesh.router[10].port[0].sched number-used-VCs
field count 0
field mean nan
field stddev nan
field min nan
field max nan
field sum 0
field sqrsum 0
statistic Mesh.router[10].port[0].sched link-utilization
field count 1
field mean -1
field stddev nan
field min -1
field max -1
field sum -1
field sqrsum 1
statistic Mesh.router[10].port[1].sched number-used-VCs
field count 0
field mean nan
field stddev nan
field min nan
field max nan
field sum 0
field sqrsum 0
statistic Mesh.router[10].port[1].sched link-utilization
field count 1
field mean -1
field stddev nan
field min -1
field max -1
field sum -1
field sqrsum 1
statistic Mesh.router[10].port[2].sched number-used-VCs
field count 32
field mean 1
field stddev 0
field min 1
field max 1
field sum 32
field sqrsum 32
statistic Mesh.router[10].port[2].sched link-utilization
field count 1
field mean -1
field stddev nan
field min -1
field max -1
field sum -1
field sqrsum 1
statistic Mesh.router[10].port[3].sched number-used-VCs
field count 49
field mean 1
field stddev 0
field min 1
field max 1
field sum 49
field sqrsum 49
statistic Mesh.router[10].port[3].sched link-utilization
field count 1
field mean -1
field stddev nan
field min -1
field max -1
field sum -1
field sqrsum 1
statistic Mesh.router[10].port[4].sched number-used-VCs
field count 160
field mean 1
field stddev 0
field min 1
field max 1
field sum 160
field sqrsum 160
statistic Mesh.router[10].port[4].sched link-utilization
field count 1
field mean -1
field stddev nan
field min -1
field max -1
field sum -1
field sqrsum 1
statistic Mesh.router[10].port[5].sched number-used-VCs
field count 99
field mean 1.2828282828283
field stddev 0.45266566570285
field min 1
field max 2
field sum 127
field sqrsum 183
statistic Mesh.router[10].port[5].sched link-utilization
field count 1
field mean -1
field stddev nan
field min -1
field max -1
field sum -1
field sqrsum 1
statistic Mesh.router[10].port[6].sched number-used-VCs
field count 32
field mean 1
field stddev 0
field min 1
field max 1
field sum 32
field sqrsum 32
statistic Mesh.router[10].port[6].sched link-utilization
field count 1
field mean -1
field stddev nan
field min -1
field max -1
field sum -1
field sqrsum 1
statistic Mesh.router[11].port[0].sched number-used-VCs
field count 0
field mean nan
field stddev nan
field min nan
field max nan
field sum 0
field sqrsum 0
statistic Mesh.router[11].port[0].sched link-utilization
field count 1
field mean -1
field stddev nan
field min -1
field max -1
field sum -1
field sqrsum 1
statistic Mesh.router[11].port[1].sched number-used-VCs
field count 0
field mean nan
field stddev nan
field min nan
field max nan
field sum 0
field sqrsum 0
statistic Mesh.router[11].port[1].sched link-utilization
field count 1
field mean -1
field stddev nan
field min -1
field max -1
field sum -1
field sqrsum 1
statistic Mesh.router[11].port[2].sched number-used-VCs
field count 85
field mean 1
field stddev 0
field min 1
field max 1
field sum 85
field sqrsum 85
statistic Mesh.router[11].port[2].sched link-utilization
field count 1
field mean -1
field stddev nan
field min -1
field max -1
field sum -1
field sqrsum 1
statistic Mesh.router[11].port[3].sched number-used-VCs
field count 0
field mean nan
field stddev nan
field min nan
field max nan
field sum 0
field sqrsum 0
statistic Mesh.router[11].port[3].sched link-utilization
field count 1
field mean -1
field stddev nan
field min -1
field max -1
field sum -1
field sqrsum 1
statistic Mesh.router[11].port[4].sched number-used-VCs
field count 32
field mean 1
field stddev 0
field min 1
field max 1
field sum 32
field sqrsum 32
statistic Mesh.router[11].port[4].sched link-utilization
field count 1
field mean -1
field stddev nan
field min -1
field max -1
field sum -1
field sqrsum 1
statistic Mesh.router[11].port[5].sched number-used-VCs
field count 58
field mean 1
field stddev 0
field min 1
field max 1
field sum 58
field sqrsum 58
statistic Mesh.router[11].port[5].sched link-utilization
field count 1
field mean -1
field stddev nan
field min -1
field max -1
field sum -1
field sqrsum 1
statistic Mesh.router[11].port[6].sched number-used-VCs
field count 64
field mean 1
field stddev 0
field min 1
field max 1
field sum 64
field sqrsum 64
statistic Mesh.router[11].port[6].sched link-utilization
field count 1
field mean -1
field stddev nan
field min -1
field max -1
field sum -1
field sqrsum 1
statistic Mesh.router[12].port[0].sched number-used-VCs
field count 32
field mean 1
field stddev 0
field min 1
field max 1
field sum 32
field sqrsum 32
statistic Mesh.router[12].port[0].sched link-utilization
field count 1
field mean -1
field stddev nan
field min -1
field max -1
field sum -1
field sqrsum 1
statistic Mesh.router[12].port[1].sched number-used-VCs
field count 0
field mean nan
field stddev nan
field min nan
field max nan
field sum 0
field sqrsum 0
statistic Mesh.router[12].port[1].sched link-utilization
field count 1
field mean -1
field stddev nan
field min -1
field max -1
field sum -1
field sqrsum 1
statistic Mesh.router[12].port[2].sched number-used-VCs
field count 96
field mean 1
field stddev 0
field min 1
field max 1
field sum 96
field sqrsum 96
statistic Mesh.router[12].port[2].sched link-utilization
field count 1
field mean -1
field stddev nan
field min -1
field max -1
field sum -1
field sqrsum 1
statistic Mesh.router[12].port[3].sched number-used-VCs
field count 32
field mean 1
field stddev 0
field min 1
field max 1
field sum 32
field sqrsum 32
statistic Mesh.router[12].port[3].sched link-utilization
field count 1
field mean -1
field stddev nan
field min -1
field max -1
field sum -1
field sqrsum 1
statistic Mesh.router[12].port[4].sched number-used-VCs
field count 131
field mean 1
field stddev 0
field min 1
field max 1
field sum 131
field sqrsum 131
statistic Mesh.router[12].port[4].sched link-utilization
field count 1
field mean -1
field stddev nan
field min -1
field max -1
field sum -1
field sqrsum 1
statistic Mesh.router[12].port[5].sched number-used-VCs
field count 130
field mean 1.2
field stddev 0.4015473945595
field min 1
field max 2
field sum 156
field sqrsum 208
statistic Mesh.router[12].port[5].sched link-utilization
field count 1
field mean -1
field stddev nan
field min -1
field max -1
field sum -1
field sqrsum 1
statistic Mesh.router[12].port[6].sched number-used-VCs
field count 70
field mean 1
field stddev 0
field min 1
field max 1
field sum 70
field sqrsum 70
statistic Mesh.router[12].port[6].sched link-utilization
field count 1
field mean -1
field stddev nan
field min -1
field max -1
field sum -1
field sqrsum 1
statistic Mesh.router[13].port[0].sched number-used-VCs
field count 64
field mean 1
field stddev 0
field min 1
field max 1
field sum 64
field sqrsum 64
statistic Mesh.router[13].port[0].sched link-utilization
field count 1
field mean -1
field stddev nan
field min -1
field max -1
field sum -1
field sqrsum 1
statistic Mesh.router[13].port[1].sched number-used-VCs
field count 35
field mean 1
field stddev 0
field min 1
field max 1
field sum 35
field sqrsum 35
statistic Mesh.router[13].port[1].sched link-utilization
field count 1
field mean -1
field stddev nan
field min -1
field max -1
field sum -1
field sqrsum 1
statistic Mesh.router[13].port[2].sched number-used-VCs
field count 32
field mean 1
field stddev 0
field min 1
field max 1
field sum 32
field sqrsum 32
statistic Mesh.router[13].port[2].sched link-utilization
field count 1
field mean -1
field stddev nan
field min -1
field max -1
field sum -1
field sqrsum 1
statistic Mesh.router[13].port[3].sched number-used-VCs
field count 0
field mean nan
field stddev nan
field min nan
field max nan
field sum 0
field sqrsum 0
statistic Mesh.router[13].port[3].sched link-utilization
field count 1
field mean -1
field stddev nan
field min -1
field max -1
field sum -1
field sqrsum 1
statistic Mesh.router[13].port[4].sched number-used-VCs
field count 32
field mean 1
field stddev 0
field min 1
field max 1
field sum 32
field sqrsum 32
statistic Mesh.router[13].port[4].sched link-utilization
field count 1
field mean -1
field stddev nan
field min -1
field max -1
field sum -1
field sqrsum 1
statistic Mesh.router[13].port[5].sched number-used-VCs
field count 130
field mean 1
field stddev 0
field min 1
field max 1
field sum 130
field sqrsum 130
statistic Mesh.router[13].port[5].sched link-utilization
field count 1
field mean -1
field stddev nan
field min -1
field max -1
field sum -1
field sqrsum 1
statistic Mesh.router[13].port[6].sched number-used-VCs
field count 26
field mean 1
field stddev 0
field min 1
field max 1
field sum 26
field sqrsum 26
statistic Mesh.router[13].port[6].sched link-utilization
field count 1
field mean -1
field stddev nan
field min -1
field max -1
field sum -1
field sqrsum 1
statistic Mesh.router[14].port[0].sched number-used-VCs
field count 0
field mean nan
field stddev nan
field min nan
field max nan
field sum 0
field sqrsum 0
statistic Mesh.router[14].port[0].sched link-utilization
field count 1
field mean -1
field stddev nan
field min -1
field max -1
field sum -1
field sqrsum 1
statistic Mesh.router[14].port[1].sched number-used-VCs
field count 36
field mean 1
field stddev 0
field min 1
field max 1
field sum 36
field sqrsum 36
statistic Mesh.router[14].port[1].sched link-utilization
field count 1
field mean -1
field stddev nan
field min -1
field max -1
field sum -1
field sqrsum 1
statistic Mesh.router[14].port[2].sched number-used-VCs
field count 32
field mean 1
field stddev 0
field min 1
field max 1
field sum 32
field sqrsum 32
statistic Mesh.router[14].port[2].sched link-utilization
field count 1
field mean -1
field stddev nan
field min -1
field max -1
field sum -1
field sqrsum 1
statistic Mesh.router[14].port[3].sched number-used-VCs
field count 0
field mean nan
field stddev nan
field min nan
field max nan
field sum 0
field sqrsum 0
statistic Mesh.router[14].port[3].sched link-utilization
field count 1
field mean -1
field stddev nan
field min -1
field max -1
field sum -1
field sqrsum 1
statistic Mesh.router[14].port[4].sched number-used-VCs
field count 48
field mean 1
field stddev 0
field min 1
field max 1
field sum 48
field sqrsum 48
statistic Mesh.router[14].port[4].sched link-utilization
field count 1
field mean -1
field stddev nan
field min -1
field max -1
field sum -1
field sqrsum 1
statistic Mesh.router[14].port[5].sched number-used-VCs
field count 156
field mean 1.4423076923077
field stddev 0.49825999969422
field min 1
field max 2
field sum 225
field sqrsum 363
statistic Mesh.router[14].port[5].sched link-utilization
field count 1
field mean -1
field stddev nan
field min -1
field max -1
field sum -1
field sqrsum 1
statistic Mesh.router[14].port[6].sched number-used-VCs
field count 148
field mean 1.9864864864865
field stddev 0.11585156386582
field min 1
field max 2
field sum 294
field sqrsum 586
statistic Mesh.router[14].port[6].sched link-utilization
field count 1
field mean -1
field stddev nan
field min -1
field max -1
field sum -1
field sqrsum 1
statistic Mesh.router[15].port[0].sched number-used-VCs
field count 32
field mean 1
field stddev 0
field min 1
field max 1
field sum 32
field sqrsum 32
statistic Mesh.router[15].port[0].sched link-utilization
field count 1
field mean -1
field stddev nan
field min -1
field max -1
field sum -1
field sqrsum 1
statistic Mesh.router[15].port[1].sched number-used-VCs
field count 0
field mean nan
field stddev nan
field min nan
field max nan
field sum 0
field sqrsum 0
statistic Mesh.router[15].port[1].sched link-utilization
field count 1
field mean -1
field stddev nan
field min -1
field max -1
field sum -1
field sqrsum 1
statistic Mesh.router[15].port[2].sched number-used-VCs
field count 0
field mean nan
field stddev nan
field min nan
field max nan
field sum 0
field sqrsum 0
statistic Mesh.router[15].port[2].sched link-utilization
field count 1
field mean -1
field stddev nan
field min -1
field max -1
field sum -1
field sqrsum 1
statistic Mesh.router[15].port[3].sched number-used-VCs
field count 32
field mean 1
field stddev 0
field min 1
field max 1
field sum 32
field sqrsum 32
statistic Mesh.router[15].port[3].sched link-utilization
field count 1
field mean -1
field stddev nan
field min -1
field max -1
field sum -1
field sqrsum 1
statistic Mesh.router[15].port[4].sched number-used-VCs
field count 72
field mean 1
field stddev 0
field min 1
field max 1
field sum 72
field sqrsum 72
statistic Mesh.router[15].port[4].sched link-utilization
field count 1
field mean -1
field stddev nan
field min -1
field max -1
field sum -1
field sqrsum 1
statistic Mesh.router[15].port[5].sched number-used-VCs
field count 37
field mean 1
field stddev 0
field min 1
field max 1
field sum 37
field sqrsum 37
statistic Mesh.router[15].port[5].sched link-utilization
field count 1
field mean -1
field stddev nan
field min -1
field max -1
field sum -1
field sqrsum 1
statistic Mesh.router[15].port[6].sched number-used-VCs
field count 64
field mean 1
field stddev 0
field min 1
field max 1
field sum 64
field sqrsum 64
statistic Mesh.router[15].port[6].sched link-utilization
field count 1
field mean -1
field stddev nan
field min -1
field max -1
field sum -1
field sqrsum 1
statistic Mesh.router[16].port[0].sched number-used-VCs
field count 32
field mean 1
field stddev 0
field min 1
field max 1
field sum 32
field sqrsum 32
statistic Mesh.router[16].port[0].sched link-utilization
field count 1
field mean -1
field stddev nan
field min -1
field max -1
field sum -1
field sqrsum 1
statistic Mesh.router[16].port[1].sched number-used-VCs
field count 32
field mean 1
field stddev 0
field min 1
field max 1
field sum 32
field sqrsum 32
statistic Mesh.router[16].port[1].sched link-utilization
field count 1
field mean -1
field stddev nan
field min -1
field max -1
field sum -1
field sqrsum 1
statistic Mesh.router[16].port[2].sched number-used-VCs
field count 0
field mean nan
field stddev nan
field min nan
field max nan
field sum 0
field sqrsum 0
statistic Mesh.router[16].port[2].sched link-utilization
field count 1
field mean -1
field stddev nan
field min -1
field max -1
field sum -1
field sqrsum 1
statistic Mesh.router[16].port[3].sched number-used-VCs
field count 32
field mean 1
field stddev 0
field min 1
field max 1
field sum 32
field sqrsum 32
statistic Mesh.router[16].port[3].sched link-utilization
field count 1
field mean -1
field stddev nan
field min -1
field max -1
field sum -1
field sqrsum 1
statistic Mesh.router[16].port[4].sched number-used-VCs
field count 101
field mean 1.0792079207921
field stddev 0.27140995990684
field min 1
field max 2
field sum 109
field sqrsum 125
statistic Mesh.router[16].port[4].sched link-utilization
field count 1
field mean -1
field stddev nan
field min -1
field max -1
field sum -1
field sqrsum 1
statistic Mesh.router[16].port[5].sched number-used-VCs
field count 66
field mean 1.4545454545455
field stddev 0.50174520600425
field min 1
field max 2
field sum 96
field sqrsum 156
statistic Mesh.router[16].port[5].sched link-utilization
field count 1
field mean -1
field stddev nan
field min -1
field max -1
field sum -1
field sqrsum 1
statistic Mesh.router[16].port[6].sched number-used-VCs
field count 85
field mean 1
field stddev 0
field min 1
field max 1
field sum 85
field sqrsum 85
statistic Mesh.router[16].port[6].sched link-utilization
field count 1
field mean -1
field stddev nan
field min -1
field max -1
field sum -1
field sqrsum 1
statistic Mesh.router[17].port[0].sched number-used-VCs
field count 0
field mean nan
field stddev nan
field min nan
field max nan
field sum 0
field sqrsum 0
statistic Mesh.router[17].port[0].sched link-utilization
field count 1
field mean -1
field stddev nan
field min -1
field max -1
field sum -1
field sqrsum 1
statistic Mesh.router[17].port[1].sched number-used-VCs
field count 0
field mean nan
field stddev nan
field min nan
field max nan
field sum 0
field sqrsum 0
statistic Mesh.router[17].port[1].sched link-utilization
field count 1
field mean -1
field stddev nan
field min -1
field max -1
field sum -1
field sqrsum 1
statistic Mesh.router[17].port[2].sched number-used-VCs
field count 0
field mean nan
field stddev nan
field min nan
field max nan
field sum 0
field sqrsum 0
statistic Mesh.router[17].port[2].sched link-utilization
field count 1
field mean -1
field stddev nan
field min -1
field max -1
field sum -1
field sqrsum 1
statistic Mesh.router[17].port[3].sched number-used-VCs
field count 0
field mean nan
field stddev nan
field min nan
field max nan
field sum 0
field sqrsum 0
statistic Mesh.router[17].port[3].sched link-utilization
field count 1
field mean -1
field stddev nan
field min -1
field max -1
field sum -1
field sqrsum 1
statistic Mesh.router[17].port[4].sched number-used-VCs
field count 64
field mean 1
field stddev 0
field min 1
field max 1
field sum 64
field sqrsum 64
statistic Mesh.router[17].port[4].sched link-utilization
field count 1
field mean -1
field stddev nan
field min -1
field max -1
field sum -1
field sqrsum 1
statistic Mesh.router[17].port[5].sched number-used-VCs
field count 96
field mean 1.5625
field stddev 0.49868247465328
field min 1
field max 2
field sum 150
field sqrsum 258
statistic Mesh.router[17].port[5].sched link-utilization
field count 1
field mean -1
field stddev nan
field min -1
field max -1
field sum -1
field sqrsum 1
statistic Mesh.router[17].port[6].sched number-used-VCs
field count 44
field mean 1
field stddev 0
field min 1
field max 1
field sum 44
field sqrsum 44
statistic Mesh.router[17].port[6].sched link-utilization
field count 1
field mean -1
field stddev nan
field min -1
field max -1
field sum -1
field sqrsum 1
statistic Mesh.router[18].port[0].sched number-used-VCs
field count 0
field mean nan
field stddev nan
field min nan
field max nan
field sum 0
field sqrsum 0
statistic Mesh.router[18].port[0].sched link-utilization
field count 1
field mean -1
field stddev nan
field min -1
field max -1
field sum -1
field sqrsum 1
statistic Mesh.router[18].port[1].sched number-used-VCs
field count 0
field mean nan
field stddev nan
field min nan
field max nan
field sum 0
field sqrsum 0
statistic Mesh.router[18].port[1].sched link-utilization
field count 1
field mean -1
field stddev nan
field min -1
field max -1
field sum -1
field sqrsum 1
statistic Mesh.router[18].port[2].sched number-used-VCs
field count 35
field mean 1
field stddev 0
field min 1
field max 1
field sum 35
field sqrsum 35
statistic Mesh.router[18].port[2].sched link-utilization
field count 1
field mean -1
field stddev nan
field min -1
field max -1
field sum -1
field sqrsum 1
statistic Mesh.router[18].port[3].sched number-used-VCs
field count 128
field mean 1.3125
field stddev 0.4653336792785
field min 1
field max 2
field sum 168
field sqrsum 248
statistic Mesh.router[18].port[3].sched link-utilization
field count 1
field mean -1
field stddev nan
field min -1
field max -1
field sum -1
field sqrsum 1
statistic Mesh.router[18].port[4].sched number-used-VCs
field count 37
field mean 1.2162162162162
field stddev 0.4173417953838
field min 1
field max 2
field sum 45
field sqrsum 61
statistic Mesh.router[18].port[4].sched link-utilization
field count 1
field mean -1
field stddev nan
field min -1
field max -1
field sum -1
field sqrsum 1
statistic Mesh.router[18].port[5].sched number-used-VCs
field count 0
field mean nan
field stddev nan
field min nan
field max nan
field sum 0
field sqrsum 0
statistic Mesh.router[18].port[5].sched link-utilization
field count 1
field mean -1
field stddev nan
field min -1
field max -1
field sum -1
field sqrsum 1
statistic Mesh.router[18].port[6].sched number-used-VCs
field count 0
field mean nan
field stddev nan
field min nan
field max nan
field sum 0
field sqrsum 0
statistic Mesh.router[18].port[6].sched link-utilization
field count 1
field mean -1
field stddev nan
field min -1
field max -1
field sum -1
field sqrsum 1
statistic Mesh.router[19].port[0].sched number-used-VCs
field count 0
field mean nan
field stddev nan
field min nan
field max nan
field sum 0
field sqrsum 0
statistic Mesh.router[19].port[0].sched link-utilization
field count 1
field mean -1
field stddev nan
field min -1
field max -1
field sum -1
field sqrsum 1
statistic Mesh.router[19].port[1].sched number-used-VCs
field count 13
field mean 1
field stddev 0
field min 1
field max 1
field sum 13
field sqrsum 13
statistic Mesh.router[19].port[1].sched link-utilization
field count 1
field mean -1
field stddev nan
field min -1
field max -1
field sum -1
field sqrsum 1
statistic Mesh.router[19].port[2].sched number-used-VCs
field count 155
field mean 1.4774193548387
field stddev 0.50110895037151
field min 1
field max 2
field sum 229
field sqrsum 377
statistic Mesh.router[19].port[2].sched link-utilization
field count 1
field mean -1
field stddev nan
field min -1
field max -1
field sum -1
field sqrsum 1
statistic Mesh.router[19].port[3].sched number-used-VCs
field count 96
field mean 1.46875
field stddev 0.50164204054495
field min 1
field max 2
field sum 141
field sqrsum 231
statistic Mesh.router[19].port[3].sched link-utilization
field count 1
field mean -1
field stddev nan
field min -1
field max -1
field sum -1
field sqrsum 1
statistic Mesh.router[19].port[4].sched number-used-VCs
field count 81
field mean 1
field stddev 0
field min 1
field max 1
field sum 81
field sqrsum 81
statistic Mesh.router[19].port[4].sched link-utilization
field count 1
field mean -1
field stddev nan
field min -1
field max -1
field sum -1
field sqrsum 1
statistic Mesh.router[19].port[5].sched number-used-VCs
field count 66
field mean 1.3636363636364
field stddev 0.48473192072014
field min 1
field max 2
field sum 90
field sqrsum 138
statistic Mesh.router[19].port[5].sched link-utilization
field count 1
field mean -1
field stddev nan
field min -1
field max -1
field sum -1
field sqrsum 1
statistic Mesh.router[19].port[6].sched number-used-VCs
field count 0
field mean nan
field stddev nan
field min nan
field max nan
field sum 0
field sqrsum 0
statistic Mesh.router[19].port[6].sched link-utilization
field count 1
field mean -1
field stddev nan
field min -1
field max -1
field sum -1
field sqrsum 1
statistic Mesh.router[20].port[0].sched number-used-VCs
field count 0
field mean nan
field stddev nan
field min nan
field max nan
field sum 0
field sqrsum 0
statistic Mesh.router[20].port[0].sched link-utilization
field count 1
field mean -1
field stddev nan
field min -1
field max -1
field sum -1
field sqrsum 1
statistic Mesh.router[20].port[1].sched number-used-VCs
field count 31
field mean 1
field stddev 0
field min 1
field max 1
field sum 31
field sqrsum 31
statistic Mesh.router[20].port[1].sched link-utilization
field count 1
field mean -1
field stddev nan
field min -1
field max -1
field sum -1
field sqrsum 1
statistic Mesh.router[20].port[2].sched number-used-VCs
field count 224
field mean 1.5758928571429
field stddev 0.49531355937549
field min 1
field max 2
field sum 353
field sqrsum 611
statistic Mesh.router[20].port[2].sched link-utilization
field count 1
field mean -1
field stddev nan
field min -1
field max -1
field sum -1
field sqrsum 1
statistic Mesh.router[20].port[3].sched number-used-VCs
field count 0
field mean nan
field stddev nan
field min nan
field max nan
field sum 0
field sqrsum 0
statistic Mesh.router[20].port[3].sched link-utilization
field count 1
field mean -1
field stddev nan
field min -1
field max -1
field sum -1
field sqrsum 1
statistic Mesh.router[20].port[4].sched number-used-VCs
field count 158
field mean 1.1582278481013
field stddev 0.36611494312064
field min 1
field max 2
field sum 183
field sqrsum 233
statistic Mesh.router[20].port[4].sched link-utilization
field count 1
field mean -1
field stddev nan
field min -1
field max -1
field sum -1
field sqrsum 1
statistic Mesh.router[20].port[5].sched number-used-VCs
field count 59
field mean 1
field stddev 0
field min 1
field max 1
field sum 59
field sqrsum 59
statistic Mesh.router[20].port[5].sched link-utilization
field count 1
field mean -1
field stddev nan
field min -1
field max -1
field sum -1
field sqrsum 1
statistic Mesh.router[20].port[6].sched number-used-VCs
field count 0
field mean nan
field stddev nan
field min nan
field max nan
field sum 0
field sqrsum 0
statistic Mesh.router[20].port[6].sched link-utilization
field count 1
field mean -1
field stddev nan
field min -1
field max -1
field sum -1
field sqrsum 1
statistic Mesh.router[21].port[0].sched number-used-VCs
field count 18
field mean 1
field stddev 0
field min 1
field max 1
field sum 18
field sqrsum 18
statistic Mesh.router[21].port[0].sched link-utilization
field count 1
field mean -1
field stddev nan
field min -1
field max -1
field sum -1
field sqrsum 1
statistic Mesh.router[21].port[1].sched number-used-VCs
field count 0
field mean nan
field stddev nan
field min nan
field max nan
field sum 0
field sqrsum 0
statistic Mesh.router[21].port[1].sched link-utilization
field count 1
field mean -1
field stddev nan
field min -1
field max -1
field sum -1
field sqrsum 1
statistic Mesh.router[21].port[2].sched number-used-VCs
field count 104
field mean 1
field stddev 0
field min 1
field max 1
field sum 104
field sqrsum 104
statistic Mesh.router[21].port[2].sched link-utilization
field count 1
field mean -1
field stddev nan
field min -1
field max -1
field sum -1
field sqrsum 1
statistic Mesh.router[21].port[3].sched number-used-VCs
field count 125
field mean 1.728
field stddev 0.44678059853334
field min 1
field max 2
field sum 216
field sqrsum 398
statistic Mesh.router[21].port[3].sched link-utilization
field count 1
field mean -1
field stddev nan
field min -1
field max -1
field sum -1
field sqrsum 1
statistic Mesh.router[21].port[4].sched number-used-VCs
field count 177
field mean 1.3220338983051
field stddev 0.4685814411884
field min 1
field max 2
field sum 234
field sqrsum 348
statistic Mesh.router[21].port[4].sched link-utilization
field count 1
field mean -1
field stddev nan
field min -1
field max -1
field sum -1
field sqrsum 1
statistic Mesh.router[21].port[5].sched number-used-VCs
field count 75
field mean 1.5733333333333
field stddev 0.49792361655974
field min 1
field max 2
field sum 118
field sqrsum 204
statistic Mesh.router[21].port[5].sched link-utilization
field count 1
field mean -1
field stddev nan
field min -1
field max -1
field sum -1
field sqrsum 1
statistic Mesh.router[21].port[6].sched number-used-VCs
field count 0
field mean nan
field stddev nan
field min nan
field max nan
field sum 0
field sqrsum 0
statistic Mesh.router[21].port[6].sched link-utilization
field count 1
field mean -1
field stddev nan
field min -1
field max -1
field sum -1
field sqrsum 1
statistic Mesh.router[22].port[0].sched number-used-VCs
field count 99
field mean 1.2323232323232
field stddev 0.4244632343465
field min 1
field max 2
field sum 122
field sqrsum 168
statistic Mesh.router[22].port[0].sched link-utilization
field count 1
field mean -1
field stddev nan
field min -1
field max -1
field sum -1
field sqrsum 1
statistic Mesh.router[22].port[1].sched number-used-VCs
field count 214
field mean 1.5607476635514
field stddev 0.49745965167184
field min 1
field max 2
field sum 334
field sqrsum 574
statistic Mesh.router[22].port[1].sched link-utilization
field count 1
field mean -1
field stddev nan
field min -1
field max -1
field sum -1
field sqrsum 1
statistic Mesh.router[22].port[2].sched number-used-VCs
field count 67
field mean 1.2537313432836
field stddev 0.43842982860291
field min 1
field max 2
field sum 84
field sqrsum 118
statistic Mesh.router[22].port[2].sched link-utilization
field count 1
field mean -1
field stddev nan
field min -1
field max -1
field sum -1
field sqrsum 1
statistic Mesh.router[22].port[3].sched number-used-VCs
field count 183
field mean 1.792349726776
field stddev 0.40673782371318
field min 1
field max 2
field sum 328
field sqrsum 618
statistic Mesh.router[22].port[3].sched link-utilization
field count 1
field mean -1
field stddev nan
field min -1
field max -1
field sum -1
field sqrsum 1
statistic Mesh.router[22].port[4].sched number-used-VCs
field count 96
field mean 1
field stddev 0
field min 1
field max 1
field sum 96
field sqrsum 96
statistic Mesh.router[22].port[4].sched link-utilization
field count 1
field mean -1
field stddev nan
field min -1
field max -1
field sum -1
field sqrsum 1
statistic Mesh.router[22].port[5].sched number-used-VCs
field count 66
field mean 1
field stddev 0
field min 1
field max 1
field sum 66
field sqrsum 66
statistic Mesh.router[22].port[5].sched link-utilization
field count 1
field mean -1
field stddev nan
field min -1
field max -1
field sum -1
field sqrsum 1
statistic Mesh.router[22].port[6].sched number-used-VCs
field count 0
field mean nan
field stddev nan
field min nan
field max nan
field sum 0
field sqrsum 0
statistic Mesh.router[22].port[6].sched link-utilization
field count 1
field mean -1
field stddev nan
field min -1
field max -1
field sum -1
field sqrsum 1
statistic Mesh.router[23].port[0].sched number-used-VCs
field count 149
field mean 1.2684563758389
field stddev 0.44465097887726
field min 1
field max 2
field sum 189
field sqrsum 269
statistic Mesh.router[23].port[0].sched link-utilization
field count 1
field mean -1
field stddev nan
field min -1
field max -1
field sum -1
field sqrsum 1
statistic Mesh.router[23].port[1].sched number-used-VCs
field count 193
field mean 1.3419689119171
field stddev 0.47560297153035
field min 1
field max 2
field sum 259
field sqrsum 391
statistic Mesh.router[23].port[1].sched link-utilization
field count 1
field mean -1
field stddev nan
field min -1
field max -1
field sum -1
field sqrsum 1
statistic Mesh.router[23].port[2].sched number-used-VCs
field count 38
field mean 1
field stddev 0
field min 1
field max 1
field sum 38
field sqrsum 38
statistic Mesh.router[23].port[2].sched link-utilization
field count 1
field mean -1
field stddev nan
field min -1
field max -1
field sum -1
field sqrsum 1
statistic Mesh.router[23].port[3].sched number-used-VCs
field count 0
field mean nan
field stddev nan
field min nan
field max nan
field sum 0
field sqrsum 0
statistic Mesh.router[23].port[3].sched link-utilization
field count 1
field mean -1
field stddev nan
field min -1
field max -1
field sum -1
field sqrsum 1
statistic Mesh.router[23].port[4].sched number-used-VCs
field count 253
field mean 1.201581027668
field stddev 0.40197610876714
field min 1
field max 2
field sum 304
field sqrsum 406
statistic Mesh.router[23].port[4].sched link-utilization
field count 1
field mean -1
field stddev nan
field min -1
field max -1
field sum -1
field sqrsum 1
statistic Mesh.router[23].port[5].sched number-used-VCs
field count 124
field mean 1.0645161290323
field stddev 0.24666673754792
field min 1
field max 2
field sum 132
field sqrsum 148
statistic Mesh.router[23].port[5].sched link-utilization
field count 1
field mean -1
field stddev nan
field min -1
field max -1
field sum -1
field sqrsum 1
statistic Mesh.router[23].port[6].sched number-used-VCs
field count 0
field mean nan
field stddev nan
field min nan
field max nan
field sum 0
field sqrsum 0
statistic Mesh.router[23].port[6].sched link-utilization
field count 1
field mean -1
field stddev nan
field min -1
field max -1
field sum -1
field sqrsum 1
statistic Mesh.router[24].port[0].sched number-used-VCs
field count 123
field mean 1.6585365853659
field stddev 0.47614001750902
field min 1
field max 2
field sum 204
field sqrsum 366
statistic Mesh.router[24].port[0].sched link-utilization
field count 1
field mean -1
field stddev nan
field min -1
field max -1
field sum -1
field sqrsum 1
statistic Mesh.router[24].port[1].sched number-used-VCs
field count 0
field mean nan
field stddev nan
field min nan
field max nan
field sum 0
field sqrsum 0
statistic Mesh.router[24].port[1].sched link-utilization
field count 1
field mean -1
field stddev nan
field min -1
field max -1
field sum -1
field sqrsum 1
statistic Mesh.router[24].port[2].sched number-used-VCs
field count 0
field mean nan
field stddev nan
field min nan
field max nan
field sum 0
field sqrsum 0
statistic Mesh.router[24].port[2].sched link-utilization
field count 1
field mean -1
field stddev nan
field min -1
field max -1
field sum -1
field sqrsum 1
statistic Mesh.router[24].port[3].sched number-used-VCs
field count 32
field mean 1
field stddev 0
field min 1
field max 1
field sum 32
field sqrsum 32
statistic Mesh.router[24].port[3].sched link-utilization
field count 1
field mean -1
field stddev nan
field min -1
field max -1
field sum -1
field sqrsum 1
statistic Mesh.router[24].port[4].sched number-used-VCs
field count 136
field mean 1.1764705882353
field stddev 0.38262936212237
field min 1
field max 2
field sum 160
field sqrsum 208
statistic Mesh.router[24].port[4].sched link-utilization
field count 1
field mean -1
field stddev nan
field min -1
field max -1
field sum -1
field sqrsum 1
statistic Mesh.router[24].port[5].sched number-used-VCs
field count 0
field mean nan
field stddev nan
field min nan
field max nan
field sum 0
field sqrsum 0
statistic Mesh.router[24].port[5].sched link-utilization
field count 1
field mean -1
field stddev nan
field min -1
field max -1
field sum -1
field sqrsum 1
statistic Mesh.router[24].port[6].sched number-used-VCs
field count 0
field mean nan
field stddev nan
field min nan
field max nan
field sum 0
field sqrsum 0
statistic Mesh.router[24].port[6].sched link-utilization
field count 1
field mean -1
field stddev nan
field min -1
field max -1
field sum -1
field sqrsum 1
statistic Mesh.router[25].port[0].sched number-used-VCs
field count 96
field mean 1
field stddev 0
field min 1
field max 1
field sum 96
field sqrsum 96
statistic Mesh.router[25].port[0].sched link-utilization
field count 1
field mean -1
field stddev nan
field min -1
field max -1
field sum -1
field sqrsum 1
statistic Mesh.router[25].port[1].sched number-used-VCs
field count 42
field mean 1
field stddev 0
field min 1
field max 1
field sum 42
field sqrsum 42
statistic Mesh.router[25].port[1].sched link-utilization
field count 1
field mean -1
field stddev nan
field min -1
field max -1
field sum -1
field sqrsum 1
statistic Mesh.router[25].port[2].sched number-used-VCs
field count 0
field mean nan
field stddev nan
field min nan
field max nan
field sum 0
field sqrsum 0
statistic Mesh.router[25].port[2].sched link-utilization
field count 1
field mean -1
field stddev nan
field min -1
field max -1
field sum -1
field sqrsum 1
statistic Mesh.router[25].port[3].sched number-used-VCs
field count 71
field mean 1
field stddev 0
field min 1
field max 1
field sum 71
field sqrsum 71
statistic Mesh.router[25].port[3].sched link-utilization
field count 1
field mean -1
field stddev nan
field min -1
field max -1
field sum -1
field sqrsum 1
statistic Mesh.router[25].port[4].sched number-used-VCs
field count 52
field mean 1
field stddev 0
field min 1
field max 1
field sum 52
field sqrsum 52
statistic Mesh.router[25].port[4].sched link-utilization
field count 1
field mean -1
field stddev nan
field min -1
field max -1
field sum -1
field sqrsum 1
statistic Mesh.router[25].port[5].sched number-used-VCs
field count 69
field mean 1.2463768115942
field stddev 0.43405736614122
field min 1
field max 2
field sum 86
field sqrsum 120
statistic Mesh.router[25].port[5].sched link-utilization
field count 1
field mean -1
field stddev nan
field min -1
field max -1
field sum -1
field sqrsum 1
statistic Mesh.router[25].port[6].sched number-used-VCs
field count 0
field mean nan
field stddev nan
field min nan
field max nan
field sum 0
field sqrsum 0
statistic Mesh.router[25].port[6].sched link-utilization
field count 1
field mean -1
field stddev nan
field min -1
field max -1
field sum -1
field sqrsum 1
statistic Mesh.router[26].port[0].sched number-used-VCs
field count 85
field mean 1
field stddev 0
field min 1
field max 1
field sum 85
field sqrsum 85
statistic Mesh.router[26].port[0].sched link-utilization
field count 1
field mean -1
field stddev nan
field min -1
field max -1
field sum -1
field sqrsum 1
statistic Mesh.router[26].port[1].sched number-used-VCs
field count 43
field mean 1
field stddev 0
field min 1
field max 1
field sum 43
field sqrsum 43
statistic Mesh.router[26].port[1].sched link-utilization
field count 1
field mean -1
field stddev nan
field min -1
field max -1
field sum -1
field sqrsum 1
statistic Mesh.router[26].port[2].sched number-used-VCs
field count 0
field mean nan
field stddev nan
field min nan
field max nan
field sum 0
field sqrsum 0
statistic Mesh.router[26].port[2].sched link-utilization
field count 1
field mean -1
field stddev nan
field min -1
field max -1
field sum -1
field sqrsum 1
statistic Mesh.router[26].port[3].sched number-used-VCs
field count 0
field mean nan
field stddev nan
field min nan
field max nan
field sum 0
field sqrsum 0
statistic Mesh.router[26].port[3].sched link-utilization
field count 1
field mean -1
field stddev nan
field min -1
field max -1
field sum -1
field sqrsum 1
statistic Mesh.router[26].port[4].sched number-used-VCs
field count 76
field mean 1.2105263157895
field stddev 0.41039134083406
field min 1
field max 2
field sum 92
field sqrsum 124
statistic Mesh.router[26].port[4].sched link-utilization
field count 1
field mean -1
field stddev nan
field min -1
field max -1
field sum -1
field sqrsum 1
statistic Mesh.router[26].port[5].sched number-used-VCs
field count 32
field mean 1
field stddev 0
field min 1
field max 1
field sum 32
field sqrsum 32
statistic Mesh.router[26].port[5].sched link-utilization
field count 1
field mean -1
field stddev nan
field min -1
field max -1
field sum -1
field sqrsum 1
statistic Mesh.router[26].port[6].sched number-used-VCs
field count 0
field mean nan
field stddev nan
field min nan
field max nan
field sum 0
field sqrsum 0
statistic Mesh.router[26].port[6].sched link-utilization
field count 1
field mean -1
field stddev nan
field min -1
field max -1
field sum -1
field sqrsum 1
statistic Mesh.core[0].source dstId-Hist
field count 26
field mean 14.769230769231
field stddev 7.0103220599781
field min 4
field max 26
field sum 384
field sqrsum 6900
bin	-inf	0
bin	0	0
bin	1	0
bin	2	0
bin	3	0
bin	4	4
bin	5	0
bin	6	0
bin	7	0
bin	8	0
bin	9	4
bin	10	0
bin	11	0
bin	12	4
bin	13	0
bin	14	0
bin	15	0
bin	16	4
bin	17	0
bin	18	0
bin	19	4
bin	20	0
bin	21	0
bin	22	0
bin	23	4
bin	24	0
bin	25	0
bin	26	2
bin	27	0
bin	28	0
bin	29	0
bin	30	0
bin	31	0
bin	32	0
statistic Mesh.core[0].source Full_Queue_Indicator
field count 1
field mean 0
field stddev nan
field min 0
field max 0
field sum 0
field sqrsum 0
statistic Mesh.core[0].source number-sent-packets
field count 1
field mean 10
field stddev nan
field min 10
field max 10
field sum 10
field sqrsum 100
statistic Mesh.core[0].source number-generated-packets
field count 1
field mean 32
field stddev nan
field min 32
field max 32
field sum 32
field sqrsum 1024
statistic Mesh.core[0].source number-queue-packets
field count 1
field mean 26
field stddev nan
field min 26
field max 26
field sum 26
field sqrsum 676
statistic Mesh.core[0].source source-queue-size-percent
field count 32
field mean 0.630859375
field stddev 0.34282660985607
field min 0.0625
field max 1
field sum 20.1875
field sqrsum 16.37890625
statistic Mesh.core[0].source loss-probability
field count 1
field mean 0.1875
field stddev nan
field min 0.1875
field max 0.1875
field sum 0.1875
field sqrsum 0.03515625
scalar Mesh.core[0].sink flit-per-vc-0 0
scalar Mesh.core[0].sink flit-per-vc-1 0
statistic Mesh.core[1].source dstId-Hist
field count 29
field mean 11.965517241379
field stddev 4.8438676888611
field min 2
field max 16
field sum 347
field sqrsum 4809
bin	-inf	0
bin	0	0
bin	1	0
bin	2	4
bin	3	1
bin	4	0
bin	5	0
bin	6	0
bin	7	0
bin	8	0
bin	9	0
bin	10	0
bin	11	4
bin	12	0
bin	13	8
bin	14	0
bin	15	4
bin	16	8
bin	17	0
bin	18	0
bin	19	0
bin	20	0
statistic Mesh.core[1].source Full_Queue_Indicator
field count 1
field mean 0
field stddev nan
field min 0
field max 0
field sum 0
field sqrsum 0
statistic Mesh.core[1].source number-sent-packets
field count 1
field mean 13
field stddev nan
field min 13
field max 13
field sum 13
field sqrsum 169
statistic Mesh.core[1].source number-generated-packets
field count 1
field mean 32
field stddev nan
field min 32
field max 32
field sum 32
field sqrsum 1024
statistic Mesh.core[1].source number-queue-packets
field count 1
field mean 29
field stddev nan
field min 29
field max 29
field sum 29
field sqrsum 841
statistic Mesh.core[1].source source-queue-size-percent
field count 32
field mean 0.546875
field stddev 0.33299714229133
field min 0.0625
field max 1
field sum 17.5
field sqrsum 13.0078125
statistic Mesh.core[1].source loss-probability
field count 1
field mean 0.09375
field stddev nan
field min 0.09375
field max 0.09375
field sum 0.09375
field sqrsum 0.0087890625
scalar Mesh.core[1].sink flit-per-vc-0 0
scalar Mesh.core[1].sink flit-per-vc-1 0
statistic Mesh.core[2].source dstId-Hist
field count 23
field mean 21.173913043478
field stddev 5.1491585712711
field min 9
field max 26
field sum 487
field sqrsum 10895
bin	-inf	0
bin	0	0
bin	1	0
bin	2	0
bin	3	0
bin	4	0
bin	5	0
bin	6	0
bin	7	0
bin	8	0
bin	9	3
bin	10	0
bin	11	0
bin	12	0
bin	13	0
bin	14	0
bin	15	0
bin	16	0
bin	17	0
bin	18	0
bin	19	0
bin	20	0
bin	21	8
bin	22	0
bin	23	4
bin	24	4
bin	25	0
bin	26	4
bin	27	0
bin	28	0
bin	29	0
bin	30	0
bin	31	0
statistic Mesh.core[2].source Full_Queue_Indicator
field count 1
field mean 0
field stddev nan
field min 0
field max 0
field sum 0
field sqrsum 0
statistic Mesh.core[2].source number-sent-packets
field count 1
field mean 7
field stddev nan
field min 7
field max 7
field sum 7
field sqrsum 49
statistic Mesh.core[2].source number-generated-packets
field count 1
field mean 32
field stddev nan
field min 32
field max 32
field sum 32
field sqrsum 1024
statistic Mesh.core[2].source number-queue-packets
field count 1
field mean 23
field stddev nan
field min 23
field max 23
field sum 23
field sqrsum 529
statistic Mesh.core[2].source source-queue-size-percent
field count 32
field mean 0.697265625
field stddev 0.32923319964424
field min 0.0625
field max 1
field sum 22.3125
field sqrsum 18.91796875
statistic Mesh.core[2].source loss-probability
field count 1
field mean 0.28125
field stddev nan
field min 0.28125
field max 0.28125
field sum 0.28125
field sqrsum 0.0791015625
scalar Mesh.core[2].sink flit-per-vc-0 0
scalar Mesh.core[2].sink flit-per-vc-1 0
statistic Mesh.core[3].source dstId-Hist
field count 31
field mean 12.129032258065
field stddev 9.7902738657093
field min 0
field max 25
field sum 376
field sqrsum 7436
bin	-inf	0
bin	0	4
bin	1	0
bin	2	0
bin	3	0
bin	4	8
bin	5	0
bin	6	4
bin	7	0
bin	8	0
bin	9	0
bin	10	0
bin	11	0
bin	12	3
bin	13	0
bin	14	0
bin	15	0
bin	16	0
bin	17	0
bin	18	0
bin	19	0
bin	20	0
bin	21	0
bin	22	0
bin	23	8
bin	24	0
bin	25	4
bin	26	0
bin	27	0
bin	28	0
bin	29	0
bin	30	0
bin	31	0
bin	32	0
statistic Mesh.core[3].source Full_Queue_Indicator
field count 1
field mean 0
field stddev nan
field min 0
field max 0
field sum 0
field sqrsum 0
statistic Mesh.core[3].source number-sent-packets
field count 1
field mean 15
field stddev nan
field min 15
field max 15
field sum 15
field sqrsum 225
statistic Mesh.core[3].source number-generated-packets
field count 1
field mean 32
field stddev nan
field min 32
field max 32
field sum 32
field sqrsum 1024
statistic Mesh.core[3].source number-queue-packets
field count 1
field mean 31
field stddev nan
field min 31
field max 31
field sum 31
field sqrsum 961
statistic Mesh.core[3].source source-queue-size-percent
field count 32
field mean 0.703125
field stddev 0.31710319374593
field min 0.0625
field max 1
field sum 22.5
field sqrsum 18.9375
statistic Mesh.core[3].source loss-probability
field count 1
field mean 0.03125
field stddev nan
field min 0.03125
field max 0.03125
field sum 0.03125
field sqrsum 0.0009765625
scalar Mesh.core[3].sink flit-per-vc-0 0
scalar Mesh.core[3].sink flit-per-vc-1 0
statistic Mesh.core[4].source dstId-Hist
field count 29
field mean 14.344827586207
field stddev 7.0825533232271
field min 3
field max 21
field sum 416
field sqrsum 7372
bin	-inf	0
bin	0	0
bin	1	0
bin	2	0
bin	3	4
bin	4	0
bin	5	0
bin	6	0
bin	7	4
bin	8	0
bin	9	4
bin	10	0
bin	11	0
bin	12	0
bin	13	0
bin	14	0
bin	15	0
bin	16	0
bin	17	0
bin	18	0
bin	19	8
bin	20	1
bin	21	8
bin	22	0
bin	23	0
bin	24	0
bin	25	0
bin	26	0
statistic Mesh.core[4].source Full_Queue_Indicator
field count 1
field mean 0
field stddev nan
field min 0
field max 0
field sum 0
field sqrsum 0
statistic Mesh.core[4].source number-sent-packets
field count 1
field mean 13
field stddev nan
field min 13
field max 13
field sum 13
field sqrsum 169
statistic Mesh.core[4].source number-generated-packets
field count 1
field mean 32
field stddev nan
field min 32
field max 32
field sum 32
field sqrsum 1024
statistic Mesh.core[4].source number-queue-packets
field count 1
field mean 29
field stddev nan
field min 29
field max 29
field sum 29
field sqrsum 841
statistic Mesh.core[4].source source-queue-size-percent
field count 32
field mean 0.634765625
field stddev 0.28447274330499
field min 0.0625
field max 1
field sum 20.3125
field sqrsum 15.40234375
statistic Mesh.core[4].source loss-probability
field count 1
field mean 0.09375
field stddev nan
field min 0.09375
field max 0.09375
field sum 0.09375
field sqrsum 0.0087890625
scalar Mesh.core[4].sink flit-per-vc-0 0
scalar Mesh.core[4].sink flit-per-vc-1 0
statistic Mesh.core[5].source dstId-Hist
field count 32
field mean 13.75
field stddev 6.7728109188088
field min 6
field max 25
field sum 440
field sqrsum 7472
bin	-inf	0
bin	0	0
bin	1	0
bin	2	0
bin	3	0
bin	4	0
bin	5	0
bin	6	4
bin	7	0
bin	8	4
bin	9	8
bin	10	0
bin	11	0
bin	12	0
bin	13	0
bin	14	4
bin	15	0
bin	16	4
bin	17	0
bin	18	0
bin	19	0
bin	20	0
bin	21	0
bin	22	0
bin	23	4
bin	24	0
bin	25	4
bin	26	0
bin	27	0
bin	28	0
bin	29	0
bin	30	0
statistic Mesh.core[5].source Full_Queue_Indicator
field count 1
field mean 0
field stddev nan
field min 0
field max 0
field sum 0
field sqrsum 0
statistic Mesh.core[5].source number-sent-packets
field count 1
field mean 16
field stddev nan
field min 16
field max 16
field sum 16
field sqrsum 256
statistic Mesh.core[5].source number-generated-packets
field count 1
field mean 32
field stddev nan
field min 32
field max 32
field sum 32
field sqrsum 1024
statistic Mesh.core[5].source number-queue-packets
field count 1
field mean 32
field stddev nan
field min 32
field max 32
field sum 32
field sqrsum 1024
statistic Mesh.core[5].source source-queue-size-percent
field count 32
field mean 0.494140625
field stddev 0.27328985068956
field min 0.0625
field max 1
field sum 15.8125
field sqrsum 10.12890625
statistic Mesh.core[5].source loss-probability
field count 1
field mean 0
field stddev nan
field min 0
field max 0
field sum 0
field sqrsum 0
scalar Mesh.core[5].sink flit-per-vc-0 0
scalar Mesh.core[5].sink flit-per-vc-1 0
statistic Mesh.core[6].source dstId-Hist
field count 30
field mean 12.2
field stddev 7.6311521252443
field min 1
field max 26
field sum 366
field sqrsum 6154
bin	-inf	0
bin	0	0
bin	1	4
bin	2	0
bin	3	0
bin	4	0
bin	5	0
bin	6	0
bin	7	6
bin	8	0
bin	9	0
bin	10	4
bin	11	0
bin	12	8
bin	13	0
bin	14	0
bin	15	0
bin	16	0
bin	17	0
bin	18	0
bin	19	0
bin	20	4
bin	21	0
bin	22	0
bin	23	0
bin	24	0
bin	25	0
bin	26	4
bin	27	0
bin	28	0
bin	29	0
bin	30	0
bin	31	0
bin	32	0
bin	33	0
statistic Mesh.core[6].source Full_Queue_Indicator
field count 1
field mean 0
field stddev nan
field min 0
field max 0
field sum 0
field sqrsum 0
statistic Mesh.core[6].source number-sent-packets
field count 1
field mean 14
field stddev nan
field min 14
field max 14
field sum 14
field sqrsum 196
statistic Mesh.core[6].source number-generated-packets
field count 1
field mean 32
field stddev nan
field min 32
field max 32
field sum 32
field sqrsum 1024
statistic Mesh.core[6].source number-queue-packets
field count 1
field mean 30
field stddev nan
field min 30
field max 30
field sum 30
field sqrsum 900
statistic Mesh.core[6].source source-queue-size-percent
field count 32
field mean 0.462890625
field stddev 0.31062314410103
field min 0.0625
field max 1
field sum 14.8125
field sqrsum 9.84765625
statistic Mesh.core[6].source loss-probability
field count 1
field mean 0.0625
field stddev nan
field min 0.0625
field max 0.0625
field sum 0.0625
field sqrsum 0.00390625
scalar Mesh.core[6].sink flit-per-vc-0 0
scalar Mesh.core[6].sink flit-per-vc-1 0
statistic Mesh.core[7].source dstId-Hist
field count 21
field mean 16.380952380952
field stddev 4.6954892234589
field min 11
field max 23
field sum 344
field sqrsum 6076
bin	-inf	0
bin	0	0
bin	1	0
bin	2	0
bin	3	0
bin	4	0
bin	5	0
bin	6	0
bin	7	0
bin	8	0
bin	9	0
bin	10	0
bin	11	4
bin	12	5
bin	13	0
bin	14	0
bin	15	0
bin	16	0
bin	17	4
bin	18	0
bin	19	0
bin	20	4
bin	21	0
bin	22	0
bin	23	4
bin	24	0
bin	25	0
bin	26	0
statistic Mesh.core[7].source Full_Queue_Indicator
field count 1
field mean 0
field stddev nan
field min 0
field max 0
field sum 0
field sqrsum 0
statistic Mesh.core[7].source number-sent-packets
field count 1
field mean 5
field stddev nan
field min 5
field max 5
field sum 5
field sqrsum 25
statistic Mesh.core[7].source number-generated-packets
field count 1
field mean 32
field stddev nan
field min 32
field max 32
field sum 32
field sqrsum 1024
statistic Mesh.core[7].source number-queue-packets
field count 1
field mean 21
field stddev nan
field min 21
field max 21
field sum 21
field sqrsum 441
statistic Mesh.core[7].source source-queue-size-percent
field count 32
field mean 0.72265625
field stddev 0.31826833468459
field min 0.0625
field max 1
field sum 23.125
field sqrsum 19.8515625
statistic Mesh.core[7].source loss-probability
field count 1
field mean 0.34375
field stddev nan
field min 0.34375
field max 0.34375
field sum 0.34375
field sqrsum 0.1181640625
scalar Mesh.core[7].sink flit-per-vc-0 0
scalar Mesh.core[7].sink flit-per-vc-1 0
statistic Mesh.core[8].source dstId-Hist
field count 31
field mean 9.9677419354839
field stddev 8.0061804083585
field min 0
field max 24
field sum 309
field sqrsum 5003
bin	-inf	0
bin	0	4
bin	1	0
bin	2	0
bin	3	4
bin	4	0
bin	5	0
bin	6	4
bin	7	7
bin	8	0
bin	9	0
bin	10	0
bin	11	0
bin	12	4
bin	13	0
bin	14	0
bin	15	0
bin	16	0
bin	17	0
bin	18	0
bin	19	0
bin	20	4
bin	21	0
bin	22	0
bin	23	0
bin	24	4
bin	25	0
bin	26	0
bin	27	0
bin	28	0
bin	29	0
bin	30	0
statistic Mesh.core[8].source Full_Queue_Indicator
field count 1
field mean 0
field stddev nan
field min 0
field max 0
field sum 0
field sqrsum 0
statistic Mesh.core[8].source number-sent-packets
field count 1
field mean 15
field stddev nan
field min 15
field max 15
field sum 15
field sqrsum 225
statistic Mesh.core[8].source number-generated-packets
field count 1
field mean 32
field stddev nan
field min 32
field max 32
field sum 32
field sqrsum 1024
statistic Mesh.core[8].source number-queue-packets
field count 1
field mean 31
field stddev nan
field min 31
field max 31
field sum 31
field sqrsum 961
statistic Mesh.core[8].source source-queue-size-percent
field count 32
field mean 0.44140625
field stddev 0.31227310311235
field min 0.0625
field max 1
field sum 14.125
field sqrsum 9.2578125
statistic Mesh.core[8].source loss-probability
field count 1
field mean 0.03125
field stddev nan
field min 0.03125
field max 0.03125
field sum 0.03125
field sqrsum 0.0009765625
scalar Mesh.core[8].sink flit-per-vc-0 0
scalar Mesh.core[8].sink flit-per-vc-1 0
statistic Mesh.core[9].source dstId-Hist
field count 32
field mean 14.75
field stddev 5.8530389129177
field min 5
field max 24
field sum 472
field sqrsum 8024
bin	-inf	0
bin	0	0
bin	1	0
bin	2	0
bin	3	0
bin	4	0
bin	5	4
bin	6	0
bin	7	0
bin	8	0
bin	9	0
bin	10	8
bin	11	0
bin	12	0
bin	13	0
bin	14	0
bin	15	4
bin	16	4
bin	17	0
bin	18	4
bin	19	0
bin	20	4
bin	21	0
bin	22	0
bin	23	0
bin	24	4
bin	25	0
bin	26	0
bin	27	0
bin	28	0
bin	29	0
statistic Mesh.core[9].source Full_Queue_Indicator
field count 1
field mean 0
field stddev nan
field min 0
field max 0
field sum 0
field sqrsum 0
statistic Mesh.core[9].source number-sent-packets
field count 1
field mean 21
field stddev nan
field min 21
field max 21
field sum 21
field sqrsum 441
statistic Mesh.core[9].source number-generated-packets
field count 1
field mean 32
field stddev nan
field min 32
field max 32
field sum 32
field sqrsum 1024
statistic Mesh.core[9].source number-queue-packets
field count 1
field mean 32
field stddev nan
field min 32
field max 32
field sum 32
field sqrsum 1024
statistic Mesh.core[9].source source-queue-size-percent
field count 32
field mean 0.408203125
field stddev 0.21533004897115
field min 0.0625
field max 0.6875
field sum 13.0625
field sqrsum 6.76953125
statistic Mesh.core[9].source loss-probability
field count 1
field mean 0
field stddev nan
field min 0
field max 0
field sum 0
field sqrsum 0
scalar Mesh.core[9].sink flit-per-vc-0 0
scalar Mesh.core[9].sink flit-per-vc-1 0
statistic Mesh.core[10].source dstId-Hist
field count 32
field mean 13.25
field stddev 8.2969096462128
field min 2
field max 24
field sum 424
field sqrsum 7752
bin	-inf	0
bin	0	0
bin	1	0
bin	2	4
bin	3	0
bin	4	4
bin	5	4
bin	6	0
bin	7	0
bin	8	0
bin	9	0
bin	10	0
bin	11	0
bin	12	0
bin	13	0
bin	14	4
bin	15	0
bin	16	4
bin	17	4
bin	18	0
bin	19	0
bin	20	0
bin	21	0
bin	22	0
bin	23	0
bin	24	8
bin	25	0
bin	26	0
bin	27	0
bin	28	0
bin	29	0
bin	30	0
statistic Mesh.core[10].source Full_Queue_Indicator
field count 1
field mean 0
field stddev nan
field min 0
field max 0
field sum 0
field sqrsum 0
statistic Mesh.core[10].source number-sent-packets
field count 1
field mean 18
field stddev nan
field min 18
field max 18
field sum 18
field sqrsum 324
statistic Mesh.core[10].source number-generated-packets
field count 1
field mean 32
field stddev nan
field min 32
field max 32
field sum 32
field sqrsum 1024
statistic Mesh.core[10].source number-queue-packets
field count 1
field mean 32
field stddev nan
field min 32
field max 32
field sum 32
field sqrsum 1024
statistic Mesh.core[10].source source-queue-size-percent
field count 32
field mean 0.50390625
field stddev 0.26561017510812
field min 0.0625
field max 0.875
field sum 16.125
field sqrsum 10.3125
statistic Mesh.core[10].source loss-probability
field count 1
field mean 0
field stddev nan
field min 0
field max 0
field sum 0
field sqrsum 0
scalar Mesh.core[10].sink flit-per-vc-0 0
scalar Mesh.core[10].sink flit-per-vc-1 0
statistic Mesh.core[11].source dstId-Hist
field count 28
field mean 13.428571428571
field stddev 5.9841059323448
field min 5
field max 23
field sum 376
field sqrsum 6016
bin	-inf	0
bin	0	0
bin	1	0
bin	2	0
bin	3	0
bin	4	0
bin	5	4
bin	6	0
bin	7	0
bin	8	0
bin	9	4
bin	10	4
bin	11	0
bin	12	4
bin	13	0
bin	14	0
bin	15	4
bin	16	0
bin	17	0
bin	18	0
bin	19	0
bin	20	4
bin	21	0
bin	22	0
bin	23	4
bin	24	0
bin	25	0
bin	26	0
bin	27	0
bin	28	0
statistic Mesh.core[11].source Full_Queue_Indicator
field count 1
field mean 0
field stddev nan
field min 0
field max 0
field sum 0
field sqrsum 0
statistic Mesh.core[11].source number-sent-packets
field count 1
field mean 12
field stddev nan
field min 12
field max 12
field sum 12
field sqrsum 144
statistic Mesh.core[11].source number-generated-packets
field count 1
field mean 32
field stddev nan
field min 32
field max 32
field sum 32
field sqrsum 1024
statistic Mesh.core[11].source number-queue-packets
field count 1
field mean 28
field stddev nan
field min 28
field max 28
field sum 28
field sqrsum 784
statistic Mesh.core[11].source source-queue-size-percent
field count 32
field mean 0.509765625
field stddev 0.36893939060709
field min 0.0625
field max 1
field sum 16.3125
field sqrsum 12.53515625
statistic Mesh.core[11].source loss-probability
field count 1
field mean 0.125
field stddev nan
field min 0.125
field max 0.125
field sum 0.125
field sqrsum 0.015625
scalar Mesh.core[11].sink flit-per-vc-0 0
scalar Mesh.core[11].sink flit-per-vc-1 0
statistic Mesh.core[12].source dstId-Hist
field count 32
field mean 13.25
field stddev 8.9117537465254
field min 3
field max 26
field sum 424
field sqrsum 8080
bin	-inf	0
bin	0	0
bin	1	0
bin	2	0
bin	3	8
bin	4	0
bin	5	0
bin	6	4
bin	7	0
bin	8	0
bin	9	0
bin	10	4
bin	11	0
bin	12	0
bin	13	0
bin	14	0
bin	15	4
bin	16	0
bin	17	4
bin	18	0
bin	19	0
bin	20	0
bin	21	0
bin	22	0
bin	23	0
bin	24	0
bin	25	0
bin	26	8
bin	27	0
bin	28	0
bin	29	0
bin	30	0
bin	31	0
bin	32	0
statistic Mesh.core[12].source Full_Queue_Indicator
field count 1
field mean 0
field stddev nan
field min 0
field max 0
field sum 0
field sqrsum 0
statistic Mesh.core[12].source number-sent-packets
field count 1
field mean 19
field stddev nan
field min 19
field max 19
field sum 19
field sqrsum 361
statistic Mesh.core[12].source number-generated-packets
field count 1
[...]
field max 32
field sum 32
field sqrsum 1024
statistic Mesh.core[13].source number-queue-packets
field count 1
field mean 27
field stddev nan
field min 27
field max 27
field sum 27
field sqrsum 729
statistic Mesh.core[13].source source-queue-size-percent
field count 32
field mean 0.56640625
field stddev 0.33069509973983
field min 0.0625
field max 1
field sum 18.125
field sqrsum 13.65625
statistic Mesh.core[13].source loss-probability
field count 1
field mean 0.15625
field stddev nan
field min 0.15625
field max 0.15625
field sum 0.15625
field sqrsum 0.0244140625
scalar Mesh.core[13].sink flit-per-vc-0 0
scalar Mesh.core[13].sink flit-per-vc-1 0
statistic Mesh.core[14].source dstId-Hist
field count 26
field mean 11.076923076923
field stddev 7.2162210438599
field min 2
field max 19
field sum 288
field sqrsum 4492
bin	-inf	0
bin	0	0
bin	1	0
bin	2	4
bin	3	4
bin	4	0
bin	5	0
bin	6	0
bin	7	4
bin	8	0
bin	9	0
bin	10	2
bin	11	0
bin	12	0
bin	13	0
bin	14	0
bin	15	0
bin	16	0
bin	17	4
bin	18	0
bin	19	8
bin	20	0
bin	21	0
bin	22	0
bin	23	0
bin	24	0
statistic Mesh.core[14].source Full_Queue_Indicator
field count 1
field mean 0
field stddev nan
field min 0
field max 0
field sum 0
field sqrsum 0
statistic Mesh.core[14].source number-sent-packets
field count 1
field mean 10
field stddev nan
field min 10
field max 10
field sum 10
field sqrsum 100
statistic Mesh.core[14].source number-generated-packets
field count 1
field mean 32
field stddev nan
field min 32
field max 32
field sum 32
field sqrsum 1024
statistic Mesh.core[14].source number-queue-packets
field count 1
field mean 26
field stddev nan
field min 26
field max 26
field sum 26
field sqrsum 676
statistic Mesh.core[14].source source-queue-size-percent
field count 32
field mean 0.65625
field stddev 0.3178969451598
field min 0.0625
field max 1
field sum 21
field sqrsum 16.9140625
statistic Mesh.core[14].source loss-probability
field count 1
field mean 0.1875
field stddev nan
field min 0.1875
field max 0.1875
field sum 0.1875
field sqrsum 0.03515625
scalar Mesh.core[14].sink flit-per-vc-0 0
scalar Mesh.core[14].sink flit-per-vc-1 0
statistic Mesh.core[15].source dstId-Hist
field count 24
field mean 12.5
field stddev 9.2454454121781
field min 0
field max 25
field sum 300
field sqrsum 5716
bin	-inf	0
bin	0	4
bin	1	0
bin	2	0
bin	3	0
bin	4	4
bin	5	0
bin	6	0
bin	7	0
bin	8	4
bin	9	0
bin	10	0
bin	11	0
bin	12	0
bin	13	0
bin	14	0
bin	15	0
bin	16	0
bin	17	0
bin	18	4
bin	19	0
bin	20	4
bin	21	0
bin	22	0
bin	23	0
bin	24	0
bin	25	4
bin	26	0
bin	27	0
bin	28	0
bin	29	0
bin	30	0
bin	31	0
bin	32	0
statistic Mesh.core[15].source Full_Queue_Indicator
field count 1
field mean 0
field stddev nan
field min 0
field max 0
field sum 0
field sqrsum 0
statistic Mesh.core[15].source number-sent-packets
field count 1
field mean 8
field stddev nan
field min 8
field max 8
field sum 8
field sqrsum 64
statistic Mesh.core[15].source number-generated-packets
field count 1
field mean 32
field stddev nan
field min 32
field max 32
field sum 32
field sqrsum 1024
statistic Mesh.core[15].source number-queue-packets
field count 1
field mean 24
field stddev nan
field min 24
field max 24
field sum 24
field sqrsum 576
statistic Mesh.core[15].source source-queue-size-percent
field count 32
field mean 0.6171875
field stddev 0.35736420272195
field min 0.0625
field max 1
field sum 19.75
field sqrsum 16.1484375
statistic Mesh.core[15].source loss-probability
field count 1
field mean 0.25
field stddev nan
field min 0.25
field max 0.25
field sum 0.25
field sqrsum 0.0625
scalar Mesh.core[15].sink flit-per-vc-0 0
scalar Mesh.core[15].sink flit-per-vc-1 0
statistic Mesh.core[16].source dstId-Hist
field count 31
field mean 13.41935483871
field stddev 7.8178180824251
field min 3
field max 26
field sum 416
field sqrsum 7416
bin	-inf	0
bin	0	0
bin	1	0
bin	2	0
bin	3	4
bin	4	0
bin	5	0
bin	6	4
bin	7	0
bin	8	0
bin	9	4
bin	10	4
bin	11	0
bin	12	0
bin	13	0
bin	14	4
bin	15	0
bin	16	0
bin	17	0
bin	18	4
bin	19	0
bin	20	0
bin	21	0
bin	22	0
bin	23	0
bin	24	3
bin	25	0
bin	26	4
bin	27	0
bin	28	0
bin	29	0
bin	30	0
bin	31	0
bin	32	0
statistic Mesh.core[16].source Full_Queue_Indicator
field count 1
field mean 0
field stddev nan
field min 0
field max 0
field sum 0
field sqrsum 0
statistic Mesh.core[16].source number-sent-packets
field count 1
field mean 15
field stddev nan
field min 15
field max 15
field sum 15
field sqrsum 225
statistic Mesh.core[16].source number-generated-packets
field count 1
field mean 32
field stddev nan
field min 32
field max 32
field sum 32
field sqrsum 1024
statistic Mesh.core[16].source number-queue-packets
field count 1
field mean 31
field stddev nan
field min 31
field max 31
field sum 31
field sqrsum 961
statistic Mesh.core[16].source source-queue-size-percent
field count 32
field mean 0.513671875
field stddev 0.27300152455485
field min 0.0625
field max 1
field sum 16.4375
field sqrsum 10.75390625
statistic Mesh.core[16].source loss-probability
field count 1
field mean 0.03125
field stddev nan
field min 0.03125
field max 0.03125
field sum 0.03125
field sqrsum 0.0009765625
scalar Mesh.core[16].sink flit-per-vc-0 0
scalar Mesh.core[16].sink flit-per-vc-1 0
statistic Mesh.core[17].source dstId-Hist
field count 29
field mean 12.034482758621
field stddev 8.3000979280827
field min 1
field max 22
field sum 349
field sqrsum 6129
bin	-inf	0
bin	0	0
bin	1	4
bin	2	0
bin	3	0
bin	4	0
bin	5	4
bin	6	0
bin	7	8
bin	8	0
bin	9	0
bin	10	0
bin	11	0
bin	12	0
bin	13	1
bin	14	0
bin	15	0
bin	16	0
bin	17	0
bin	18	0
bin	19	0
bin	20	0
bin	21	8
bin	22	4
bin	23	0
bin	24	0
bin	25	0
bin	26	0
bin	27	0
bin	28	0
statistic Mesh.core[17].source Full_Queue_Indicator
field count 1
field mean 0
field stddev nan
field min 0
field max 0
field sum 0
field sqrsum 0
statistic Mesh.core[17].source number-sent-packets
field count 1
field mean 13
field stddev nan
field min 13
field max 13
field sum 13
field sqrsum 169
statistic Mesh.core[17].source number-generated-packets
field count 1
field mean 32
field stddev nan
field min 32
field max 32
field sum 32
field sqrsum 1024
statistic Mesh.core[17].source number-queue-packets
field count 1
field mean 29
field stddev nan
field min 29
field max 29
field sum 29
field sqrsum 841
statistic Mesh.core[17].source source-queue-size-percent
field count 32
field mean 0.583984375
field stddev 0.33284929468724
field min 0.0625
field max 1
field sum 18.6875
field sqrsum 14.34765625
statistic Mesh.core[17].source loss-probability
field count 1
field mean 0.09375
field stddev nan
field min 0.09375
field max 0.09375
field sum 0.09375
field sqrsum 0.0087890625
scalar Mesh.core[17].sink flit-per-vc-0 0
scalar Mesh.core[17].sink flit-per-vc-1 0
statistic Mesh.core[18].source dstId-Hist
field count 28
field mean 11.714285714286
field stddev 9.4393076600209
field min 0
field max 26
field sum 328
field sqrsum 6248
bin	-inf	0
bin	0	4
bin	1	0
bin	2	4
bin	3	0
bin	4	4
bin	5	0
bin	6	0
bin	7	0
bin	8	0
bin	9	0
bin	10	0
bin	11	0
bin	12	0
bin	13	4
bin	14	0
bin	15	0
bin	16	4
bin	17	0
bin	18	0
bin	19	0
bin	20	0
bin	21	4
bin	22	0
bin	23	0
bin	24	0
bin	25	0
bin	26	4
bin	27	0
bin	28	0
bin	29	0
bin	30	0
bin	31	0
bin	32	0
bin	33	0
statistic Mesh.core[18].source Full_Queue_Indicator
field count 1
field mean 0
field stddev nan
field min 0
field max 0
field sum 0
field sqrsum 0
statistic Mesh.core[18].source number-sent-packets
field count 1
field mean 12
field stddev nan
field min 12
field max 12
field sum 12
field sqrsum 144
statistic Mesh.core[18].source number-generated-packets
field count 1
field mean 32
field stddev nan
field min 32
field max 32
field sum 32
field sqrsum 1024
statistic Mesh.core[18].source number-queue-packets
field count 1
field mean 28
field stddev nan
field min 28
field max 28
field sum 28
field sqrsum 784
statistic Mesh.core[18].source source-queue-size-percent
field count 32
field mean 0.69140625
field stddev 0.30201670103094
field min 0.0625
field max 1
field sum 22.125
field sqrsum 18.125
statistic Mesh.core[18].source loss-probability
field count 1
field mean 0.125
field stddev nan
field min 0.125
field max 0.125
field sum 0.125
field sqrsum 0.015625
scalar Mesh.core[18].sink flit-per-vc-0 0
scalar Mesh.core[18].sink flit-per-vc-1 0
statistic Mesh.core[19].source dstId-Hist
field count 31
field mean 14.677419354839
field stddev 8.0679906493674
field min 1
field max 24
field sum 455
field sqrsum 8631
bin	-inf	0
bin	0	0
bin	1	4
bin	2	0
bin	3	4
bin	4	0
bin	5	0
bin	6	0
bin	7	0
bin	8	0
bin	9	0
bin	10	0
bin	11	0
bin	12	0
bin	13	0
bin	14	0
bin	15	4
bin	16	0
bin	17	7
bin	18	0
bin	19	0
bin	20	4
bin	21	4
bin	22	0
bin	23	0
bin	24	4
bin	25	0
bin	26	0
bin	27	0
bin	28	0
bin	29	0
bin	30	0
statistic Mesh.core[19].source Full_Queue_Indicator
field count 1
field mean 0
field stddev nan
field min 0
field max 0
field sum 0
field sqrsum 0
statistic Mesh.core[19].source number-sent-packets
field count 1
field mean 15
field stddev nan
field min 15
field max 15
field sum 15
field sqrsum 225
statistic Mesh.core[19].source number-generated-packets
field count 1
field mean 32
field stddev nan
field min 32
field max 32
field sum 32
field sqrsum 1024
statistic Mesh.core[19].source number-queue-packets
field count 1
field mean 31
field stddev nan
field min 31
field max 31
field sum 31
field sqrsum 961
statistic Mesh.core[19].source source-queue-size-percent
field count 32
field mean 0.48046875
field stddev 0.30923190320482
field min 0.0625
field max 1
field sum 15.375
field sqrsum 10.3515625
statistic Mesh.core[19].source loss-probability
field count 1
field mean 0.03125
field stddev nan
field min 0.03125
field max 0.03125
field sum 0.03125
field sqrsum 0.0009765625
scalar Mesh.core[19].sink flit-per-vc-0 0
scalar Mesh.core[19].sink flit-per-vc-1 0
statistic Mesh.core[20].source dstId-Hist
field count 32
field mean 14.5
field stddev 5.945993500642
field min 5
field max 22
field sum 464
field sqrsum 7824
bin	-inf	0
bin	0	0
bin	1	0
bin	2	0
bin	3	0
bin	4	0
bin	5	4
bin	6	0
bin	7	4
bin	8	0
bin	9	0
bin	10	0
bin	11	0
bin	12	0
bin	13	4
bin	14	4
bin	15	4
bin	16	0
bin	17	0
bin	18	4
bin	19	0
bin	20	0
bin	21	0
bin	22	8
bin	23	0
bin	24	0
bin	25	0
bin	26	0
bin	27	0
statistic Mesh.core[20].source Full_Queue_Indicator
field count 1
field mean 0
field stddev nan
field min 0
field max 0
field sum 0
field sqrsum 0
statistic Mesh.core[20].source number-sent-packets
field count 1
field mean 19
field stddev nan
field min 19
field max 19
field sum 19
field sqrsum 361
statistic Mesh.core[20].source number-generated-packets
field count 1
field mean 32
field stddev nan
field min 32
field max 32
field sum 32
field sqrsum 1024
statistic Mesh.core[20].source number-queue-packets
field count 1
field mean 32
field stddev nan
field min 32
field max 32
field sum 32
field sqrsum 1024
statistic Mesh.core[20].source source-queue-size-percent
field count 32
field mean 0.4453125
field stddev 0.24426382979964
field min 0.0625
field max 0.8125
field sum 14.25
field sqrsum 8.1953125
statistic Mesh.core[20].source loss-probability
field count 1
field mean 0
field stddev nan
field min 0
field max 0
field sum 0
field sqrsum 0
scalar Mesh.core[20].sink flit-per-vc-0 0
scalar Mesh.core[20].sink flit-per-vc-1 0
statistic Mesh.core[21].source dstId-Hist
field count 23
field mean 4.3913043478261
field stddev 3.1585256980085
field min 2
field max 11
field sum 101
field sqrsum 663
bin	-inf	0
bin	0	0
bin	1	0
bin	2	4
bin	3	11
bin	4	4
bin	5	0
bin	6	0
bin	7	0
bin	8	0
bin	9	0
bin	10	0
bin	11	4
bin	12	0
bin	13	0
bin	14	0
statistic Mesh.core[21].source Full_Queue_Indicator
field count 1
field mean 0
field stddev nan
field min 0
field max 0
field sum 0
field sqrsum 0
statistic Mesh.core[21].source number-sent-packets
field count 1
field mean 7
field stddev nan
field min 7
field max 7
field sum 7
field sqrsum 49
statistic Mesh.core[21].source number-generated-packets
field count 1
field mean 32
field stddev nan
field min 32
field max 32
field sum 32
field sqrsum 1024
statistic Mesh.core[21].source number-queue-packets
field count 1
field mean 23
field stddev nan
field min 23
field max 23
field sum 23
field sqrsum 529
statistic Mesh.core[21].source source-queue-size-percent
field count 32
field mean 0.64453125
field stddev 0.33953148311194
field min 0.0625
field max 1
field sum 20.625
field sqrsum 16.8671875
statistic Mesh.core[21].source loss-probability
field count 1
field mean 0.28125
field stddev nan
field min 0.28125
field max 0.28125
field sum 0.28125
field sqrsum 0.0791015625
scalar Mesh.core[21].sink flit-per-vc-0 0
scalar Mesh.core[21].sink flit-per-vc-1 0
statistic Mesh.core[22].source dstId-Hist
field count 30
field mean 11.533333333333
field stddev 7.5371874994788
field min 3
field max 25
field sum 346
field sqrsum 5638
bin	-inf	0
bin	0	0
bin	1	0
bin	2	0
bin	3	4
bin	4	0
bin	5	4
bin	6	0
bin	7	4
bin	8	0
bin	9	0
bin	10	8
bin	11	2
bin	12	0
bin	13	0
bin	14	0
bin	15	0
bin	16	0
bin	17	0
bin	18	0
bin	19	0
bin	20	0
bin	21	4
bin	22	0
bin	23	0
bin	24	0
bin	25	4
bin	26	0
bin	27	0
bin	28	0
bin	29	0
bin	30	0
bin	31	0
statistic Mesh.core[22].source Full_Queue_Indicator
field count 1
field mean 0
field stddev nan
field min 0
field max 0
field sum 0
field sqrsum 0
statistic Mesh.core[22].source number-sent-packets
field count 1
field mean 14
field stddev nan
field min 14
field max 14
field sum 14
field sqrsum 196
statistic Mesh.core[22].source number-generated-packets
field count 1
field mean 32
field stddev nan
field min 32
field max 32
field sum 32
field sqrsum 1024
statistic Mesh.core[22].source number-queue-packets
field count 1
field mean 30
field stddev nan
field min 30
field max 30
field sum 30
field sqrsum 900
statistic Mesh.core[22].source source-queue-size-percent
field count 32
field mean 0.529296875
field stddev 0.31947236892421
field min 0.0625
field max 1
field sum 16.9375
field sqrsum 12.12890625
statistic Mesh.core[22].source loss-probability
field count 1
field mean 0.0625
field stddev nan
field min 0.0625
field max 0.0625
field sum 0.0625
field sqrsum 0.00390625
scalar Mesh.core[22].sink flit-per-vc-0 0
scalar Mesh.core[22].sink flit-per-vc-1 0
statistic Mesh.core[23].source dstId-Hist
field count 29
field mean 20.206896551724
field stddev 5.0382771314411
field min 6
field max 26
field sum 586
field sqrsum 12552
bin	-inf	0
bin	0	0
bin	1	0
bin	2	0
bin	3	0
bin	4	0
bin	5	0
bin	6	1
bin	7	0
bin	8	0
bin	9	0
bin	10	0
bin	11	0
bin	12	4
bin	13	0
bin	14	0
bin	15	0
bin	16	0
bin	17	0
bin	18	4
bin	19	0
bin	20	0
bin	21	4
bin	22	8
bin	23	0
bin	24	4
bin	25	0
bin	26	4
bin	27	0
bin	28	0
bin	29	0
bin	30	0
bin	31	0
statistic Mesh.core[23].source Full_Queue_Indicator
field count 1
field mean 0
field stddev nan
field min 0
field max 0
field sum 0
field sqrsum 0
statistic Mesh.core[23].source number-sent-packets
field count 1
field mean 13
field stddev nan
field min 13
field max 13
field sum 13
field sqrsum 169
statistic Mesh.core[23].source number-generated-packets
field count 1
field mean 32
field stddev nan
field min 32
field max 32
field sum 32
field sqrsum 1024
statistic Mesh.core[23].source number-queue-packets
field count 1
field mean 29
field stddev nan
field min 29
field max 29
field sum 29
field sqrsum 841
statistic Mesh.core[23].source source-queue-size-percent
field count 32
field mean 0.6015625
field stddev 0.26313766634903
field min 0.0625
field max 1
field sum 19.25
field sqrsum 13.7265625
statistic Mesh.core[23].source loss-probability
field count 1
field mean 0.09375
field stddev nan
field min 0.09375
field max 0.09375
field sum 0.09375
field sqrsum 0.0087890625
scalar Mesh.core[23].sink flit-per-vc-0 0
scalar Mesh.core[23].sink flit-per-vc-1 0
statistic Mesh.core[24].source dstId-Hist
field count 26
field mean 11.846153846154
field stddev 6.5341705376723
field min 1
field max 18
field sum 308
field sqrsum 4716
bin	-inf	0
bin	0	0
bin	1	4
bin	2	0
bin	3	0
bin	4	0
bin	5	0
bin	6	0
bin	7	4
bin	8	4
bin	9	0
bin	10	0
bin	11	0
bin	12	0
bin	13	0
bin	14	0
bin	15	0
bin	16	2
bin	17	4
bin	18	8
bin	19	0
bin	20	0
bin	21	0
bin	22	0
bin	23	0
statistic Mesh.core[24].source Full_Queue_Indicator
field count 1
field mean 0
field stddev nan
field min 0
field max 0
field sum 0
field sqrsum 0
statistic Mesh.core[24].source number-sent-packets
field count 1
field mean 10
field stddev nan
field min 10
field max 10
field sum 10
field sqrsum 100
statistic Mesh.core[24].source number-generated-packets
field count 1
field mean 32
field stddev nan
field min 32
field max 32
field sum 32
field sqrsum 1024
statistic Mesh.core[24].source number-queue-packets
field count 1
field mean 26
field stddev nan
field min 26
field max 26
field sum 26
field sqrsum 676
statistic Mesh.core[24].source source-queue-size-percent
field count 32
field mean 0.6484375
field stddev 0.32056134609916
field min 0.0625
field max 1
field sum 20.75
field sqrsum 16.640625
statistic Mesh.core[24].source loss-probability
field count 1
field mean 0.1875
field stddev nan
field min 0.1875
field max 0.1875
field sum 0.1875
field sqrsum 0.03515625
scalar Mesh.core[24].sink flit-per-vc-0 0
scalar Mesh.core[24].sink flit-per-vc-1 0
statistic Mesh.core[25].source dstId-Hist
field count 28
field mean 12
field stddev 8.7092968632291
field min 2
field max 26
field sum 336
field sqrsum 6080
bin	-inf	0
bin	0	0
bin	1	0
bin	2	8
bin	3	0
bin	4	0
bin	5	4
bin	6	0
bin	7	0
bin	8	0
bin	9	0
bin	10	0
bin	11	0
bin	12	0
bin	13	0
bin	14	0
bin	15	8
bin	16	0
bin	17	0
bin	18	0
bin	19	4
bin	20	0
bin	21	0
bin	22	0
bin	23	0
bin	24	0
bin	25	0
bin	26	4
bin	27	0
bin	28	0
bin	29	0
bin	30	0
bin	31	0
bin	32	0
statistic Mesh.core[25].source Full_Queue_Indicator
field count 1
field mean 0
field stddev nan
field min 0
field max 0
field sum 0
field sqrsum 0
statistic Mesh.core[25].source number-sent-packets
field count 1
field mean 13
field stddev nan
field min 13
field max 13
field sum 13
field sqrsum 169
statistic Mesh.core[25].source number-generated-packets
field count 1
field mean 32
field stddev nan
field min 32
field max 32
field sum 32
field sqrsum 1024
statistic Mesh.core[25].source number-queue-packets
field count 1
field mean 28
field stddev nan
field min 28
field max 28
field sum 28
field sqrsum 784
statistic Mesh.core[25].source source-queue-size-percent
field count 32
field mean 0.533203125
field stddev 0.35104408461724
field min 0.0625
field max 1
field sum 17.0625
field sqrsum 12.91796875
statistic Mesh.core[25].source loss-probability
field count 1
field mean 0.125
field stddev nan
field min 0.125
field max 0.125
field sum 0.125
field sqrsum 0.015625
scalar Mesh.core[25].sink flit-per-vc-0 0
scalar Mesh.core[25].sink flit-per-vc-1 0
statistic Mesh.core[26].source dstId-Hist
field count 26
field mean 15.461538461538
field stddev 8.5567786893469
field min 0
field max 23
field sum 402
field sqrsum 8046
bin	-inf	0
bin	0	4
bin	1	0
bin	2	0
bin	3	0
bin	4	0
bin	5	0
bin	6	0
bin	7	0
bin	8	0
bin	9	0
bin	10	4
bin	11	0
bin	12	4
bin	13	0
bin	14	0
bin	15	0
bin	16	0
bin	17	0
bin	18	0
bin	19	2
bin	20	0
bin	21	0
bin	22	0
bin	23	12
bin	24	0
bin	25	0
bin	26	0
bin	27	0
bin	28	0
bin	29	0
statistic Mesh.core[26].source Full_Queue_Indicator
field count 1
field mean 0
field stddev nan
field min 0
field max 0
field sum 0
field sqrsum 0
statistic Mesh.core[26].source number-sent-packets
field count 1
field mean 10
field stddev nan
field min 10
field max 10
field sum 10
field sqrsum 100
statistic Mesh.core[26].source number-generated-packets
field count 1
field mean 32
field stddev nan
field min 32
field max 32
field sum 32
field sqrsum 1024
statistic Mesh.core[26].source number-queue-packets
field count 1
field mean 26
field stddev nan
field min 26
field max 26
field sum 26
field sqrsum 676
statistic Mesh.core[26].source source-queue-size-percent
field count 32
field mean 0.64453125
field stddev 0.33278422093244
field min 0.0625
field max 1
field sum 20.625
field sqrsum 16.7265625
statistic Mesh.core[26].source loss-probability
field count 1
field mean 0.1875
field stddev nan
field min 0.1875
field max 0.1875
field sum 0.1875
field sqrsum 0.03515625
scalar Mesh.core[26].sink flit-per-vc-0 0
scalar Mesh.core[26].sink flit-per-vc-1 0

